<?xml version="1.0" encoding="UTF-8"?>

<!-- generated on 2024-09-10 09:52:22 by Eclipse SUMO netconvert Version 1.18.0
<configuration xmlns:xsi="http://www.w3.org/2001/XMLSchema-instance" xsi:noNamespaceSchemaLocation="http://sumo.dlr.de/xsd/netconvertConfiguration.xsd">

    <input>
        <sumo-net-file value="temp.net.xml"/>
    </input>

    <output>
        <output-file value="D:\PanoSim5\PanoSimDatabase\World\PanoSim\PanoSim.net.xml"/>
    </output>

    <processing>
        <flatten value="true"/>
        <geometry.min-radius.fix.railways value="false"/>
        <geometry.max-grade.fix value="false"/>
        <offset.disable-normalization value="true"/>
        <lefthand value="0"/>
    </processing>

    <junctions>
        <no-turnarounds value="true"/>
        <junctions.corner-detail value="5"/>
        <junctions.limit-turn-speed value="5.50"/>
        <rectangular-lane-cut value="0"/>
    </junctions>

    <pedestrian>
        <walkingareas value="0"/>
    </pedestrian>

</configuration>
-->

<net version="1.16" junctionCornerDetail="5" limitTurnSpeed="5.50" xmlns:xsi="http://www.w3.org/2001/XMLSchema-instance" xsi:noNamespaceSchemaLocation="http://sumo.dlr.de/xsd/net_file.xsd">

    <location netOffset="-279766.57,-3401484.38" convBoundary="0.00,0.00,1774.75,1529.28" origBoundary="120.696316,30.722529,120.723277,30.744266" projParameter="+proj=utm +zone=51 +ellps=WGS84 +datum=WGS84 +units=m +no_defs"/>

    <type id="highway.residential" priority="3" numLanes="1" speed="13.89" disallow="tram rail_urban rail rail_electric rail_fast ship" oneway="0"/>
    <type id="highway.secondary_link" priority="6" numLanes="1" speed="22.22" disallow="tram rail_urban rail rail_electric rail_fast ship" oneway="0"/>
    <type id="highway.tertiary" priority="10" numLanes="1" speed="22.22" disallow="tram rail_urban rail rail_electric rail_fast ship" oneway="0"/>

    <edge id=":5940047994_0" function="internal">
        <lane id=":5940047994_0_0" index="0" disallow="tram rail_urban rail rail_electric rail_fast ship" speed="3.65" length="4.67" shape="690.28,1257.09 689.38,1258.22 688.55,1258.54 687.79,1258.07 687.10,1256.81"/>
    </edge>
    <edge id=":5940048020_0" function="internal">
        <lane id=":5940048020_0_0" index="0" disallow="tram rail_urban rail rail_electric rail_fast ship" speed="3.65" length="4.67" shape="1525.37,57.59 1526.73,58.04 1527.33,58.71 1527.16,59.58 1526.21,60.67"/>
    </edge>
    <edge id=":5940048041_0" function="internal">
        <lane id=":5940048041_0_0" index="0" disallow="tram rail_urban rail rail_electric rail_fast ship" speed="3.65" length="4.67" shape="1597.44,154.83 1598.89,154.86 1599.66,155.31 1599.75,156.20 1599.18,157.53"/>
    </edge>
    <edge id=":5940048042_0" function="internal">
        <lane id=":5940048042_0_0" index="0" disallow="tram rail_urban rail rail_electric rail_fast ship" speed="6.99" length="9.90" shape="1406.07,287.78 1404.72,285.72 1402.88,284.55 1400.54,284.27 1397.70,284.89"/>
    </edge>
    <edge id=":5940048042_1" function="internal">
        <lane id=":5940048042_1_0" index="0" disallow="tram rail_urban rail rail_electric rail_fast ship" speed="13.89" length="14.69" shape="1406.07,287.78 1404.52,284.42 1402.86,281.17 1401.10,277.98 1399.21,274.80"/>
    </edge>
    <edge id=":5940048042_2" function="internal">
        <lane id=":5940048042_2_0" index="0" disallow="tram rail_urban rail rail_electric rail_fast ship" speed="8.51" length="3.76" shape="1406.07,287.78 1405.06,284.16"/>
    </edge>
    <edge id=":5940048042_3" function="internal">
        <lane id=":5940048042_3_0" index="0" disallow="tram rail_urban rail rail_electric rail_fast ship" speed="3.65" length="1.44" shape="1406.07,287.78 1406.32,286.36"/>
    </edge>
    <edge id=":5940048042_16" function="internal">
        <lane id=":5940048042_16_0" index="0" disallow="tram rail_urban rail rail_electric rail_fast ship" speed="8.51" length="10.49" shape="1405.06,284.16 1405.38,280.91 1407.02,278.02 1409.99,275.50"/>
    </edge>
    <edge id=":5940048042_17" function="internal">
        <lane id=":5940048042_17_0" index="0" disallow="tram rail_urban rail rail_electric rail_fast ship" speed="3.65" length="3.23" shape="1406.32,286.36 1406.89,285.67 1407.79,285.71 1409.00,286.49"/>
    </edge>
    <edge id=":5940048042_4" function="internal">
        <lane id=":5940048042_4_0" index="0" disallow="tram rail_urban rail rail_electric rail_fast ship" speed="7.11" length="9.65" shape="1411.72,278.19 1409.69,279.91 1408.56,281.86 1408.33,284.06 1409.00,286.49"/>
    </edge>
    <edge id=":5940048042_5" function="internal">
        <lane id=":5940048042_5_0" index="0" disallow="tram rail_urban rail rail_electric rail_fast ship" speed="13.89" length="15.57" shape="1411.72,278.19 1408.42,280.15 1404.91,281.94 1401.30,283.53 1397.70,284.89"/>
    </edge>
    <edge id=":5940048042_6" function="internal">
        <lane id=":5940048042_6_0" index="0" disallow="tram rail_urban rail rail_electric rail_fast ship" speed="8.11" length="14.86" shape="1411.72,278.19 1408.13,279.79 1404.85,279.75 1401.87,278.09 1399.21,274.80"/>
    </edge>
    <edge id=":5940048042_7" function="internal">
        <lane id=":5940048042_7_0" index="0" disallow="tram rail_urban rail rail_electric rail_fast ship" speed="3.65" length="4.67" shape="1411.72,278.19 1410.28,278.16 1409.51,277.71 1409.41,276.82 1409.99,275.50"/>
    </edge>
    <edge id=":5940048042_8" function="internal">
        <lane id=":5940048042_8_0" index="0" disallow="tram rail_urban rail rail_electric rail_fast ship" speed="6.64" length="9.61" shape="1401.94,273.13 1403.68,275.31 1405.61,276.43 1407.71,276.49 1409.99,275.50"/>
    </edge>
    <edge id=":5940048042_9" function="internal">
        <lane id=":5940048042_9_0" index="0" disallow="tram rail_urban rail rail_electric rail_fast ship" speed="13.89" length="15.12" shape="1401.94,273.13 1403.86,276.37 1405.69,279.69 1407.41,283.07 1409.00,286.49"/>
    </edge>
    <edge id=":5940048042_10" function="internal">
        <lane id=":5940048042_10_0" index="0" disallow="tram rail_urban rail rail_electric rail_fast ship" speed="7.67" length="4.42" shape="1401.94,273.13 1403.63,277.06 1403.62,277.21"/>
    </edge>
    <edge id=":5940048042_11" function="internal">
        <lane id=":5940048042_11_0" index="0" disallow="tram rail_urban rail rail_electric rail_fast ship" speed="3.65" length="1.44" shape="1401.94,273.13 1401.88,274.57"/>
    </edge>
    <edge id=":5940048042_18" function="internal">
        <lane id=":5940048042_18_0" index="0" disallow="tram rail_urban rail rail_electric rail_fast ship" speed="7.67" length="10.67" shape="1403.62,277.21 1403.48,280.33 1401.51,282.94 1397.70,284.89"/>
    </edge>
    <edge id=":5940048042_19" function="internal">
        <lane id=":5940048042_19_0" index="0" disallow="tram rail_urban rail rail_electric rail_fast ship" speed="3.65" length="3.23" shape="1401.88,274.57 1401.41,275.33 1400.52,275.41 1399.21,274.80"/>
    </edge>
    <edge id=":5940048042_12" function="internal">
        <lane id=":5940048042_12_0" index="0" disallow="tram rail_urban rail rail_electric rail_fast ship" speed="6.09" length="9.06" shape="1396.66,281.86 1398.95,280.69 1400.14,279.12 1400.22,277.16 1399.21,274.80"/>
    </edge>
    <edge id=":5940048042_13" function="internal">
        <lane id=":5940048042_13_0" index="0" disallow="tram rail_urban rail rail_electric rail_fast ship" speed="13.89" length="14.80" shape="1396.66,281.86 1400.15,280.56 1403.52,279.08 1406.80,277.40 1409.99,275.50"/>
    </edge>
    <edge id=":5940048042_14" function="internal">
        <lane id=":5940048042_14_0" index="0" disallow="tram rail_urban rail rail_electric rail_fast ship" speed="8.40" length="14.75" shape="1396.66,281.86 1400.79,281.00 1404.22,281.48 1406.96,283.31 1409.00,286.49"/>
    </edge>
    <edge id=":5940048042_15" function="internal">
        <lane id=":5940048042_15_0" index="0" disallow="tram rail_urban rail rail_electric rail_fast ship" speed="3.65" length="4.67" shape="1396.66,281.86 1398.06,282.23 1398.70,282.85 1398.58,283.74 1397.70,284.89"/>
    </edge>
    <edge id=":5940048045_0" function="internal">
        <lane id=":5940048045_0_0" index="0" disallow="tram rail_urban rail rail_electric rail_fast ship" speed="13.89" length="13.58" shape="1082.52,395.34 1082.03,391.84 1081.43,388.64 1080.66,385.47 1079.70,382.07"/>
    </edge>
    <edge id=":5940048045_1" function="internal">
        <lane id=":5940048045_1_0" index="0" disallow="tram rail_urban rail rail_electric rail_fast ship" speed="8.54" length="3.63" shape="1082.52,395.34 1082.62,391.71"/>
    </edge>
    <edge id=":5940048045_2" function="internal">
        <lane id=":5940048045_2_0" index="0" disallow="tram rail_urban rail rail_electric rail_fast ship" speed="3.65" length="1.44" shape="1082.52,395.34 1083.17,394.05"/>
    </edge>
    <edge id=":5940048045_9" function="internal">
        <lane id=":5940048045_9_0" index="0" disallow="tram rail_urban rail rail_electric rail_fast ship" speed="8.54" length="10.38" shape="1082.62,391.71 1083.85,388.75 1086.23,386.46 1089.74,384.84"/>
    </edge>
    <edge id=":5940048045_10" function="internal">
        <lane id=":5940048045_10_0" index="0" disallow="tram rail_urban rail rail_electric rail_fast ship" speed="3.65" length="3.23" shape="1083.17,394.05 1083.92,393.56 1084.76,393.86 1085.69,394.96"/>
    </edge>
    <edge id=":5940048045_3" function="internal">
        <lane id=":5940048045_3_0" index="0" disallow="tram rail_urban rail rail_electric rail_fast ship" speed="7.14" length="9.51" shape="1090.70,387.90 1088.28,389.00 1086.63,390.55 1085.77,392.53 1085.69,394.96"/>
    </edge>
    <edge id=":5940048045_4" function="internal">
        <lane id=":5940048045_4_0" index="0" disallow="tram rail_urban rail rail_electric rail_fast ship" speed="7.98" length="14.24" shape="1090.70,387.90 1086.85,388.53 1083.73,387.77 1081.34,385.62 1079.70,382.07"/>
    </edge>
    <edge id=":5940048045_5" function="internal">
        <lane id=":5940048045_5_0" index="0" disallow="tram rail_urban rail rail_electric rail_fast ship" speed="3.65" length="4.67" shape="1090.70,387.90 1089.32,387.49 1088.70,386.85 1088.84,385.97 1089.74,384.84"/>
    </edge>
    <edge id=":5940048045_6" function="internal">
        <lane id=":5940048045_6_0" index="0" disallow="tram rail_urban rail rail_electric rail_fast ship" speed="6.48" length="9.03" shape="1082.76,381.15 1083.81,383.40 1085.32,384.76 1087.30,385.24 1089.74,384.84"/>
    </edge>
    <edge id=":5940048045_7" function="internal">
        <lane id=":5940048045_7_0" index="0" disallow="tram rail_urban rail rail_electric rail_fast ship" speed="13.89" length="14.14" shape="1082.76,381.15 1083.75,384.63 1084.55,387.99 1085.19,391.38 1085.69,394.96"/>
    </edge>
    <edge id=":5940048045_8" function="internal">
        <lane id=":5940048045_8_0" index="0" disallow="tram rail_urban rail rail_electric rail_fast ship" speed="3.65" length="1.44" shape="1082.76,381.15 1082.34,382.53"/>
    </edge>
    <edge id=":5940048045_11" function="internal">
        <lane id=":5940048045_11_0" index="0" disallow="tram rail_urban rail rail_electric rail_fast ship" speed="3.65" length="3.23" shape="1082.34,382.53 1081.69,383.14 1080.81,382.99 1079.70,382.07"/>
    </edge>
    <edge id=":5940048046_0" function="internal">
        <lane id=":5940048046_0_0" index="0" disallow="tram rail_urban rail rail_electric rail_fast ship" speed="7.14" length="9.83" shape="1310.09,125.30 1308.72,122.82 1306.99,121.23 1304.91,120.52 1302.47,120.71"/>
    </edge>
    <edge id=":5940048046_1" function="internal">
        <lane id=":5940048046_1_0" index="0" disallow="tram rail_urban rail rail_electric rail_fast ship" speed="7.76" length="14.78" shape="1310.09,125.30 1309.09,121.29 1309.70,118.09 1311.93,115.72 1315.77,114.18"/>
    </edge>
    <edge id=":5940048046_2" function="internal">
        <lane id=":5940048046_2_0" index="0" disallow="tram rail_urban rail rail_electric rail_fast ship" speed="3.65" length="4.67" shape="1310.09,125.30 1310.38,123.89 1310.97,123.22 1311.86,123.29 1313.05,124.10"/>
    </edge>
    <edge id=":5940048046_3" function="internal">
        <lane id=":5940048046_3_0" index="0" disallow="tram rail_urban rail rail_electric rail_fast ship" speed="6.21" length="9.05" shape="1316.53,117.28 1314.18,118.23 1312.82,119.68 1312.44,121.64 1313.05,124.10"/>
    </edge>
    <edge id=":5940048046_4" function="internal">
        <lane id=":5940048046_4_0" index="0" disallow="tram rail_urban rail rail_electric rail_fast ship" speed="22.22" length="14.47" shape="1316.53,117.28 1302.47,120.71"/>
    </edge>
    <edge id=":5940048046_5" function="internal">
        <lane id=":5940048046_5_0" index="0" disallow="tram rail_urban rail rail_electric rail_fast ship" speed="3.65" length="1.44" shape="1316.53,117.28 1315.17,116.79"/>
    </edge>
    <edge id=":5940048046_9" function="internal">
        <lane id=":5940048046_9_0" index="0" disallow="tram rail_urban rail rail_electric rail_fast ship" speed="3.65" length="3.23" shape="1315.17,116.79 1314.60,116.11 1314.79,115.24 1315.77,114.18"/>
    </edge>
    <edge id=":5940048046_6" function="internal">
        <lane id=":5940048046_6_0" index="0" disallow="tram rail_urban rail rail_electric rail_fast ship" speed="22.22" length="14.47" shape="1301.72,117.61 1315.77,114.18"/>
    </edge>
    <edge id=":5940048046_7" function="internal">
        <lane id=":5940048046_7_0" index="0" disallow="tram rail_urban rail rail_electric rail_fast ship" speed="8.54" length="3.85" shape="1301.72,117.61 1305.39,117.29 1305.54,117.34"/>
    </edge>
    <edge id=":5940048046_8" function="internal">
        <lane id=":5940048046_8_0" index="0" disallow="tram rail_urban rail rail_electric rail_fast ship" speed="3.65" length="1.44" shape="1301.72,117.61 1303.07,118.10"/>
    </edge>
    <edge id=":5940048046_10" function="internal">
        <lane id=":5940048046_10_0" index="0" disallow="tram rail_urban rail rail_electric rail_fast ship" speed="8.54" length="10.60" shape="1305.54,117.34 1308.50,118.26 1311.06,120.53 1313.05,124.10"/>
    </edge>
    <edge id=":5940048046_11" function="internal">
        <lane id=":5940048046_11_0" index="0" disallow="tram rail_urban rail rail_electric rail_fast ship" speed="3.65" length="3.23" shape="1303.07,118.10 1303.65,118.78 1303.45,119.65 1302.47,120.71"/>
    </edge>
    <edge id=":5940048049_0" function="internal">
        <lane id=":5940048049_0_0" index="0" disallow="tram rail_urban rail rail_electric rail_fast ship" speed="13.89" length="9.66" shape="1486.82,463.98 1485.38,461.50 1484.46,459.77 1483.60,458.00 1482.39,455.40"/>
    </edge>
    <edge id=":5940048049_1" function="internal">
        <lane id=":5940048049_1_0" index="0" disallow="tram rail_urban rail rail_electric rail_fast ship" speed="6.85" length="10.47" shape="1486.82,463.98 1486.46,462.27 1487.32,460.46 1489.41,458.54 1492.72,456.51"/>
    </edge>
    <edge id=":5940048049_2" function="internal">
        <lane id=":5940048049_2_0" index="0" disallow="tram rail_urban rail rail_electric rail_fast ship" speed="3.65" length="4.67" shape="1486.82,463.98 1486.90,462.54 1487.39,461.78 1488.28,461.72 1489.58,462.35"/>
    </edge>
    <edge id=":5940048049_3" function="internal">
        <lane id=":5940048049_3_0" index="0" disallow="tram rail_urban rail rail_electric rail_fast ship" speed="6.40" length="9.04" shape="1485.28,454.04 1486.66,456.12 1488.35,457.23 1490.37,457.35 1492.72,456.51"/>
    </edge>
    <edge id=":5940048049_4" function="internal">
        <lane id=":5940048049_4_0" index="0" disallow="tram rail_urban rail rail_electric rail_fast ship" speed="13.89" length="9.36" shape="1485.28,454.04 1486.46,456.56 1487.29,458.27 1488.18,459.95 1489.58,462.35"/>
    </edge>
    <edge id=":5940048049_5" function="internal">
        <lane id=":5940048049_5_0" index="0" disallow="tram rail_urban rail rail_electric rail_fast ship" speed="3.65" length="4.67" shape="1485.28,454.04 1485.07,455.46 1484.52,456.17 1483.62,456.15 1482.39,455.40"/>
    </edge>
    <edge id=":5940048049_6" function="internal">
        <lane id=":5940048049_6_0" index="0" disallow="tram rail_urban rail rail_electric rail_fast ship" speed="6.75" length="9.34" shape="1480.02,463.36 1481.99,461.86 1483.04,460.04 1483.18,457.89 1482.39,455.40"/>
    </edge>
    <edge id=":5940048049_7" function="internal">
        <lane id=":5940048049_7_0" index="0" disallow="tram rail_urban rail rail_electric rail_fast ship" speed="22.22" length="14.43" shape="1480.02,463.36 1492.72,456.51"/>
    </edge>
    <edge id=":5940048049_8" function="internal">
        <lane id=":5940048049_8_0" index="0" disallow="tram rail_urban rail rail_electric rail_fast ship" speed="7.03" length="10.45" shape="1480.02,463.36 1483.49,461.72 1486.25,461.01 1488.27,461.22 1489.58,462.35"/>
    </edge>
    <edge id=":5940048050_0" function="internal">
        <lane id=":5940048050_0_0" index="0" disallow="tram rail_urban rail rail_electric rail_fast ship" speed="6.32" length="9.04" shape="1491.08,472.58 1489.76,470.44 1488.10,469.31 1486.09,469.18 1483.74,470.05"/>
    </edge>
    <edge id=":5940048050_1" function="internal">
        <lane id=":5940048050_1_0" index="0" disallow="tram rail_urban rail rail_electric rail_fast ship" speed="13.89" length="9.41" shape="1491.08,472.58 1489.98,470.01 1489.20,468.26 1488.32,466.57 1486.93,464.15"/>
    </edge>
    <edge id=":5940048050_2" function="internal">
        <lane id=":5940048050_2_0" index="0" disallow="tram rail_urban rail rail_electric rail_fast ship" speed="3.65" length="4.67" shape="1491.08,472.58 1491.34,471.16 1491.91,470.47 1492.81,470.52 1494.02,471.30"/>
    </edge>
    <edge id=":5940048050_3" function="internal">
        <lane id=":5940048050_3_0" index="0" disallow="tram rail_urban rail rail_electric rail_fast ship" speed="6.79" length="9.44" shape="1496.52,463.28 1494.53,464.73 1493.45,466.55 1493.28,468.74 1494.02,471.30"/>
    </edge>
    <edge id=":5940048050_4" function="internal">
        <lane id=":5940048050_4_0" index="0" disallow="tram rail_urban rail rail_electric rail_fast ship" speed="22.22" length="14.46" shape="1496.52,463.28 1483.74,470.05"/>
    </edge>
    <edge id=":5940048050_5" function="internal">
        <lane id=":5940048050_5_0" index="0" disallow="tram rail_urban rail rail_electric rail_fast ship" speed="7.09" length="10.43" shape="1496.52,463.28 1493.02,464.83 1490.25,465.49 1488.22,465.27 1486.93,464.15"/>
    </edge>
    <edge id=":5940048050_6" function="internal">
        <lane id=":5940048050_6_0" index="0" disallow="tram rail_urban rail rail_electric rail_fast ship" speed="13.89" length="9.80" shape="1489.68,462.52 1491.13,465.04 1492.05,466.81 1492.87,468.63 1494.02,471.30"/>
    </edge>
    <edge id=":5940048050_7" function="internal">
        <lane id=":5940048050_7_0" index="0" disallow="tram rail_urban rail rail_electric rail_fast ship" speed="6.89" length="10.52" shape="1489.68,462.52 1490.03,464.21 1489.16,466.03 1487.06,467.98 1483.74,470.05"/>
    </edge>
    <edge id=":5940048050_8" function="internal">
        <lane id=":5940048050_8_0" index="0" disallow="tram rail_urban rail rail_electric rail_fast ship" speed="3.65" length="4.67" shape="1489.68,462.52 1489.60,463.96 1489.12,464.71 1488.23,464.77 1486.93,464.15"/>
    </edge>
    <edge id=":5940048051_0" function="internal">
        <lane id=":5940048051_0_0" index="0" disallow="tram rail_urban rail rail_electric rail_fast ship" speed="3.65" length="4.67" shape="1561.38,625.93 1561.12,627.35 1560.55,628.04 1559.66,627.99 1558.44,627.21"/>
    </edge>
    <edge id=":5940048052_0" function="internal">
        <lane id=":5940048052_0_0" index="0" disallow="tram rail_urban rail rail_electric rail_fast ship" speed="6.51" length="9.02" shape="867.11,87.18 865.28,85.52 863.35,84.85 861.34,85.16 859.23,86.46"/>
    </edge>
    <edge id=":5940048052_1" function="internal">
        <lane id=":5940048052_1_0" index="0" disallow="tram rail_urban rail rail_electric rail_fast ship" speed="8.01" length="14.18" shape="867.11,87.18 865.07,83.88 864.57,80.71 865.62,77.68 868.20,74.78"/>
    </edge>
    <edge id=":5940048052_2" function="internal">
        <lane id=":5940048052_2_0" index="0" disallow="tram rail_urban rail rail_electric rail_fast ship" speed="3.65" length="4.67" shape="867.11,87.18 866.96,85.75 867.32,84.93 868.19,84.72 869.57,85.14"/>
    </edge>
    <edge id=":5940048052_3" function="internal">
        <lane id=":5940048052_3_0" index="0" disallow="tram rail_urban rail rail_electric rail_fast ship" speed="6.52" length="9.04" shape="870.26,77.23 868.62,79.08 867.95,81.01 868.27,83.03 869.57,85.14"/>
    </edge>
    <edge id=":5940048052_4" function="internal">
        <lane id=":5940048052_4_0" index="0" disallow="tram rail_urban rail rail_electric rail_fast ship" speed="13.89" length="14.38" shape="870.26,77.23 859.23,86.46"/>
    </edge>
    <edge id=":5940048052_5" function="internal">
        <lane id=":5940048052_5_0" index="0" disallow="tram rail_urban rail rail_electric rail_fast ship" speed="3.65" length="1.44" shape="870.26,77.23 868.83,77.39"/>
    </edge>
    <edge id=":5940048052_9" function="internal">
        <lane id=":5940048052_9_0" index="0" disallow="tram rail_urban rail rail_electric rail_fast ship" speed="3.65" length="3.23" shape="868.83,77.39 868.01,77.04 867.80,76.17 868.20,74.78"/>
    </edge>
    <edge id=":5940048052_6" function="internal">
        <lane id=":5940048052_6_0" index="0" disallow="tram rail_urban rail rail_electric rail_fast ship" speed="13.89" length="14.36" shape="857.18,83.99 868.20,74.78"/>
    </edge>
    <edge id=":5940048052_7" function="internal">
        <lane id=":5940048052_7_0" index="0" disallow="tram rail_urban rail rail_electric rail_fast ship" speed="8.00" length="4.04" shape="857.18,83.99 860.49,81.96 860.65,81.94"/>
    </edge>
    <edge id=":5940048052_8" function="internal">
        <lane id=":5940048052_8_0" index="0" disallow="tram rail_urban rail rail_electric rail_fast ship" speed="3.65" length="1.44" shape="857.18,83.99 858.62,83.84"/>
    </edge>
    <edge id=":5940048052_10" function="internal">
        <lane id=":5940048052_10_0" index="0" disallow="tram rail_urban rail rail_electric rail_fast ship" speed="8.00" length="10.14" shape="860.65,81.94 863.66,81.47 866.69,82.53 869.57,85.14"/>
    </edge>
    <edge id=":5940048052_11" function="internal">
        <lane id=":5940048052_11_0" index="0" disallow="tram rail_urban rail rail_electric rail_fast ship" speed="3.65" length="3.23" shape="858.62,83.84 859.44,84.20 859.64,85.07 859.23,86.46"/>
    </edge>
    <edge id=":5940048054_0" function="internal">
        <lane id=":5940048054_0_0" index="0" disallow="tram rail_urban rail rail_electric rail_fast ship" speed="7.35" length="10.51" shape="991.32,240.93 989.27,238.96 987.03,238.00 984.61,238.04 982.01,239.10"/>
    </edge>
    <edge id=":5940048054_1" function="internal">
        <lane id=":5940048054_1_0" index="0" disallow="tram rail_urban rail rail_electric rail_fast ship" speed="13.89" length="15.35" shape="991.32,240.93 981.94,228.78"/>
    </edge>
    <edge id=":5940048054_2" function="internal">
        <lane id=":5940048054_2_0" index="0" disallow="tram rail_urban rail rail_electric rail_fast ship" speed="7.76" length="14.77" shape="991.32,240.93 989.25,237.36 988.95,234.12 990.42,231.22 993.66,228.66"/>
    </edge>
    <edge id=":5940048054_3" function="internal">
        <lane id=":5940048054_3_0" index="0" disallow="tram rail_urban rail rail_electric rail_fast ship" speed="3.65" length="4.67" shape="991.32,240.93 991.21,239.49 991.59,238.68 992.46,238.50 993.83,238.95"/>
    </edge>
    <edge id=":5940048054_4" function="internal">
        <lane id=":5940048054_4_0" index="0" disallow="tram rail_urban rail rail_electric rail_fast ship" speed="6.22" length="9.05" shape="995.27,231.43 993.28,233.00 992.38,234.77 992.56,236.76 993.83,238.95"/>
    </edge>
    <edge id=":5940048054_5" function="internal">
        <lane id=":5940048054_5_0" index="0" disallow="tram rail_urban rail rail_electric rail_fast ship" speed="22.22" length="15.32" shape="995.27,231.43 982.01,239.10"/>
    </edge>
    <edge id=":5940048054_6" function="internal">
        <lane id=":5940048054_6_0" index="0" disallow="tram rail_urban rail rail_electric rail_fast ship" speed="8.63" length="4.28" shape="995.27,231.43 991.47,232.98 991.29,232.98"/>
    </edge>
    <edge id=":5940048054_7" function="internal">
        <lane id=":5940048054_7_0" index="0" disallow="tram rail_urban rail rail_electric rail_fast ship" speed="3.65" length="1.44" shape="995.27,231.43 993.83,231.34"/>
    </edge>
    <edge id=":5940048054_16" function="internal">
        <lane id=":5940048054_16_0" index="0" disallow="tram rail_urban rail rail_electric rail_fast ship" speed="8.63" length="10.83" shape="991.29,232.98 987.99,233.05 984.81,231.65 981.94,228.78"/>
    </edge>
    <edge id=":5940048054_17" function="internal">
        <lane id=":5940048054_17_0" index="0" disallow="tram rail_urban rail rail_electric rail_fast ship" speed="3.65" length="3.23" shape="993.83,231.34 993.08,230.84 993.03,229.95 993.66,228.66"/>
    </edge>
    <edge id=":5940048054_8" function="internal">
        <lane id=":5940048054_8_0" index="0" disallow="tram rail_urban rail rail_electric rail_fast ship" speed="7.25" length="10.40" shape="984.49,226.86 986.46,228.82 988.65,229.78 991.05,229.73 993.66,228.66"/>
    </edge>
    <edge id=":5940048054_9" function="internal">
        <lane id=":5940048054_9_0" index="0" disallow="tram rail_urban rail rail_electric rail_fast ship" speed="13.89" length="15.28" shape="984.49,226.86 993.83,238.95"/>
    </edge>
    <edge id=":5940048054_10" function="internal">
        <lane id=":5940048054_10_0" index="0" disallow="tram rail_urban rail rail_electric rail_fast ship" speed="7.80" length="14.68" shape="984.49,226.86 986.46,230.44 986.71,233.68 985.22,236.56 982.01,239.10"/>
    </edge>
    <edge id=":5940048054_11" function="internal">
        <lane id=":5940048054_11_0" index="0" disallow="tram rail_urban rail rail_electric rail_fast ship" speed="3.65" length="4.67" shape="984.49,226.86 984.57,228.30 984.18,229.10 983.30,229.26 981.94,228.78"/>
    </edge>
    <edge id=":5940048054_12" function="internal">
        <lane id=":5940048054_12_0" index="0" disallow="tram rail_urban rail rail_electric rail_fast ship" speed="6.26" length="9.05" shape="980.41,236.33 982.39,234.77 983.30,232.99 983.15,230.99 981.94,228.78"/>
    </edge>
    <edge id=":5940048054_13" function="internal">
        <lane id=":5940048054_13_0" index="0" disallow="tram rail_urban rail rail_electric rail_fast ship" speed="22.22" length="15.32" shape="980.41,236.33 993.66,228.66"/>
    </edge>
    <edge id=":5940048054_14" function="internal">
        <lane id=":5940048054_14_0" index="0" disallow="tram rail_urban rail rail_electric rail_fast ship" speed="8.72" length="4.24" shape="980.41,236.33 984.17,234.80 984.35,234.80"/>
    </edge>
    <edge id=":5940048054_15" function="internal">
        <lane id=":5940048054_15_0" index="0" disallow="tram rail_urban rail rail_electric rail_fast ship" speed="3.65" length="1.44" shape="980.41,236.33 981.85,236.42"/>
    </edge>
    <edge id=":5940048054_18" function="internal">
        <lane id=":5940048054_18_0" index="0" disallow="tram rail_urban rail rail_electric rail_fast ship" speed="8.72" length="10.91" shape="984.35,234.80 987.66,234.73 990.88,236.11 993.83,238.95"/>
    </edge>
    <edge id=":5940048054_19" function="internal">
        <lane id=":5940048054_19_0" index="0" disallow="tram rail_urban rail rail_electric rail_fast ship" speed="3.65" length="3.23" shape="981.85,236.42 982.59,236.91 982.65,237.80 982.01,239.10"/>
    </edge>
    <edge id=":5940048069_0" function="internal">
        <lane id=":5940048069_0_0" index="0" disallow="tram rail_urban rail rail_electric rail_fast ship" speed="6.75" length="9.36" shape="829.63,628.98 827.01,629.30 825.10,630.32 823.87,632.03 823.35,634.43"/>
    </edge>
    <edge id=":5940048069_1" function="internal">
        <lane id=":5940048069_1_0" index="0" disallow="tram rail_urban rail rail_electric rail_fast ship" speed="7.91" length="14.45" shape="829.63,628.98 825.67,628.38 822.93,626.66 821.41,623.81 821.10,619.84"/>
    </edge>
    <edge id=":5940048069_2" function="internal">
        <lane id=":5940048069_2_0" index="0" disallow="tram rail_urban rail rail_electric rail_fast ship" speed="3.69" length="4.82" shape="829.63,628.98 828.64,627.87 828.45,626.96 829.06,626.27 830.47,625.79"/>
    </edge>
    <edge id=":5940048069_3" function="internal">
        <lane id=":5940048069_3_0" index="0" disallow="tram rail_urban rail rail_electric rail_fast ship" speed="6.60" length="9.73" shape="824.29,620.05 824.54,622.54 825.65,624.33 827.63,625.41 830.47,625.79"/>
    </edge>
    <edge id=":5940048069_4" function="internal">
        <lane id=":5940048069_4_0" index="0" disallow="tram rail_urban rail rail_electric rail_fast ship" speed="22.22" length="14.41" shape="824.29,620.05 823.35,634.43"/>
    </edge>
    <edge id=":5940048069_5" function="internal">
        <lane id=":5940048069_5_0" index="0" disallow="tram rail_urban rail rail_electric rail_fast ship" speed="3.65" length="1.44" shape="824.29,620.05 823.41,621.20"/>
    </edge>
    <edge id=":5940048069_9" function="internal">
        <lane id=":5940048069_9_0" index="0" disallow="tram rail_urban rail rail_electric rail_fast ship" speed="3.65" length="3.23" shape="823.41,621.20 822.59,621.54 821.82,621.09 821.10,619.84"/>
    </edge>
    <edge id=":5940048069_6" function="internal">
        <lane id=":5940048069_6_0" index="0" disallow="tram rail_urban rail rail_electric rail_fast ship" speed="22.22" length="14.41" shape="820.15,634.22 821.10,619.84"/>
    </edge>
    <edge id=":5940048069_7" function="internal">