<?xml version="1.0" encoding="UTF-8"?>
<!-- generated on 2024-06-19 13:16:15 by Eclipse SUMO netconvert Version 1.18.0
<configuration xmlns:xsi="http://www.w3.org/2001/XMLSchema-instance" xsi:noNamespaceSchemaLocation="http://sumo.dlr.de/xsd/netconvertConfiguration.xsd">

    <input>
        <sumo-net-file value="D:\Database\Block\Temp\temp_3d70e475187140f2ab0037d4951a0097.net.xml,D:\Database\Block\Temp\temp_52db885d51b2467b962518689e9c8444.net.xml,D:\Database\Block\Temp\temp_77b350eaa2924e7bbc82f8414995353c.net.xml,D:\Database\Block\Temp\temp_8651284c89fd4e28b1657ab35c307d4d.net.xml,D:\Database\Block\Temp\temp_4d6a2f6df29a4b69bebee3d0fd905315.net.xml"/>
    </input>

    <output>
        <precision value="2"/>
        <output-file value="D:\Database\Block\Temp\PanoHighway.net.xml"/>
    </output>

    <processing>
        <geometry.min-radius.fix.railways value="false"/>
        <geometry.max-grade.fix value="false"/>
        <offset.disable-normalization value="true"/>
        <lefthand value="0"/>
    </processing>

    <junctions>
        <no-turnarounds value="true"/>
        <junctions.join value="true"/>
        <junctions.join-same value="true"/>
        <junctions.corner-detail value="10"/>
        <junctions.internal-link-detail value="10"/>
        <junctions.limit-turn-speed value="5.50"/>
        <rectangular-lane-cut value="0"/>
    </junctions>

    <pedestrian>
        <walkingareas value="0"/>
    </pedestrian>

</configuration>
-->
<net version="1.16" junctionCornerDetail="10" junctionLinkDetail="10" limitTurnSpeed="5.50" xmlns:xsi="http://www.w3.org/2001/XMLSchema-instance" xsi:noNamespaceSchemaLocation="http://sumo.dlr.de/xsd/net_file.xsd">
  <location netOffset="0.00,-50.00" convBoundary="-540.99,-3017.94,1826.13,704.98" origBoundary="-10000000000.00,-10000000000.00,10000000000.00,10000000000.00" projParameter="!" />
  <edge id=":10003_0" function="internal">
    <lane id=":10003_0_0" index="0" allow="emergency" speed="18.18" length="20.62" width="3.00" shape="-49.85,-2530.53 -49.30,-2533.51 -48.82,-2535.98 -48.46,-2538.07 -48.25,-2539.93 -48.24,-2541.69 -48.48,-2543.49 -49.00,-2545.47 -49.84,-2547.76 -51.05,-2550.52" />
    <lane id=":10003_0_1" index="1" speed="16.66" length="22.67" width="3.50" shape="-46.53,-2529.94 -45.93,-2533.22 -45.42,-2535.93 -45.05,-2538.24 -44.87,-2540.28 -44.90,-2542.21 -45.20,-2544.18 -45.81,-2546.36 -46.76,-2548.88 -48.11,-2551.90" />
  </edge>
  <edge id=":10003_2" function="internal">
    <lane id=":10003_2_0" index="0" speed="33.33" length="21.60" width="3.75" shape="-42.84,-2529.29 -39.08,-2550.57" />
    <lane id=":10003_2_1" index="1" speed="33.33" length="21.60" width="3.75" shape="-39.14,-2528.64 -35.39,-2549.92" />
    <lane id=":10003_2_2" index="2" speed="33.33" length="21.60" width="3.75" shape="-35.45,-2527.99 -31.70,-2549.26" />
    <lane id=":10003_2_3" index="3" allow="custom1" speed="33.33" length="21.60" width="1.00" shape="-33.11,-2527.58 -29.36,-2548.85" />
  </edge>
  <edge id=":1003_0" function="internal">
    <lane id=":1003_0_0" index="0" allow="emergency" speed="17.65" length="20.57" width="3.00" shape="10.29,-42.40 10.78,-39.41 11.16,-36.92 11.52,-34.82 11.94,-33.00 12.51,-31.34 13.34,-29.73 14.50,-28.06 16.09,-26.22 18.19,-24.09" />
    <lane id=":1003_0_1" index="1" speed="16.66" length="22.66" width="3.50" shape="6.97,-41.81 7.52,-38.52 7.96,-35.79 8.38,-33.49 8.89,-31.50 9.57,-29.69 10.52,-27.93 11.83,-26.11 13.61,-24.09 15.94,-21.75" />
  </edge>
  <edge id=":1003_2" function="internal">
    <lane id=":1003_2_0" index="0" speed="33.33" length="21.69" width="3.75" shape="3.28,-41.16 7.04,-19.80" />
    <lane id=":1003_2_1" index="1" speed="33.33" length="21.69" width="3.75" shape="-0.42,-40.51 3.35,-19.15" />
    <lane id=":1003_2_2" index="2" speed="33.33" length="21.69" width="3.75" shape="-4.11,-39.86 -0.34,-18.50" />
    <lane id=":1003_2_3" index="3" allow="custom1" speed="33.33" length="21.69" width="1.00" shape="-6.45,-39.45 -2.68,-18.09" />
  </edge>
  <edge id=":11001_0" function="internal">
    <lane id=":11001_0_0" index="0" speed="27.77" length="8.23" width="3.75" shape="-0.65,-2627.43 -1.01,-2626.18 -1.52,-2625.26 -2.14,-2624.59 -2.84,-2624.06 -3.55,-2623.57 -4.25,-2623.04 -4.87,-2622.37 -5.38,-2621.45 -5.73,-2620.20" />
    <lane id=":11001_0_1" index="1" speed="33.33" length="8.23" width="3.75" shape="-4.35,-2628.08 -5.73,-2620.20" />
    <lane id=":11001_0_2" index="2" speed="33.33" length="8.23" width="3.75" shape="-8.04,-2628.73 -9.43,-2620.85" />
    <lane id=":11001_0_3" index="3" speed="33.33" length="8.23" width="3.75" shape="-11.73,-2629.38 -13.12,-2621.50" />
    <lane id=":11001_0_4" index="4" allow="custom1" speed="33.33" length="8.23" width="1.00" shape="-14.07,-2629.79 -15.46,-2621.91" />
  </edge>
  <edge id=":12003_0" function="internal">
    <lane id=":12003_0_0" index="0" allow="emergency" speed="18.90" length="21.66" width="3.00" shape="27.41,-2739.86 25.37,-2737.63 23.80,-2735.73 22.63,-2734.03 21.78,-2732.42 21.15,-2730.78 20.68,-2728.98 20.28,-2726.89 19.86,-2724.41 19.35,-2721.41" />
    <lane id=":12003_0_1" index="1" speed="19.64" length="21.66" width="3.75" shape="25.07,-2742.11 22.82,-2739.68 21.07,-2737.61 19.76,-2735.77 18.79,-2734.02 18.08,-2732.23 17.53,-2730.27 17.07,-2728.00 16.59,-2725.29 16.03,-2722.00" />
  </edge>
  <edge id=":12003_2" function="internal">
    <lane id=":12003_2_0" index="0" speed="33.33" length="21.43" width="3.75" shape="16.06,-2743.76 12.34,-2722.65" />
    <lane id=":12003_2_1" index="1" speed="33.33" length="21.43" width="3.75" shape="12.36,-2744.41 8.64,-2723.31" />
    <lane id=":12003_2_2" index="2" speed="27.77" length="21.43" width="3.75" shape="8.67,-2745.06 4.95,-2723.96" />
    <lane id=":12003_2_3" index="3" allow="custom1" speed="33.33" length="21.43" width="1.00" shape="6.33,-2745.47 2.61,-2724.37" />
  </edge>
  <edge id=":13002_0" function="internal">
    <lane id=":13002_0_0" index="0" speed="27.77" length="8.29" width="3.75" shape="1430.56,-304.53,8.00 1431.41,-305.51,8.00 1431.90,-306.44,8.00 1432.12,-307.33,8.00 1432.19,-308.20,8.00 1432.21,-309.07,8.00 1432.27,-309.94,8.00 1432.50,-310.83,8.00 1432.99,-311.76,8.00 1433.84,-312.73,8.00" />
    <lane id=":13002_0_1" index="1" speed="33.33" length="8.29" width="3.75" shape="1430.56,-304.53,8.00 1436.40,-309.99,8.00" />
    <lane id=":13002_0_2" index="2" speed="33.33" length="8.29" width="3.75" shape="1433.11,-301.79,8.00 1438.96,-307.25,8.00" />
    <lane id=":13002_0_3" index="3" speed="33.33" length="8.29" width="3.75" shape="1435.67,-299.05,8.00 1441.52,-304.51,8.00" />
  </edge>
  <edge id=":14003_0" function="internal">
    <lane id=":14003_0_0" index="0" allow="emergency" speed="17.70" length="20.58" width="3.00" shape="1500.74,-379.83,8.00 1502.98,-381.87,8.00 1504.86,-383.55,8.00 1506.42,-384.99,8.00 1507.72,-386.34,8.00 1508.79,-387.74,8.00 1509.69,-389.31,8.00 1510.46,-391.19,8.00 1511.14,-393.53,8.00 1511.78,-396.46,8.00" />
    <lane id=":14003_0_1" index="1" speed="16.66" length="22.67" width="3.50" shape="1503.04,-377.37,8.00 1505.50,-379.62,8.00 1507.55,-381.48,8.00 1509.24,-383.09,8.00 1510.63,-384.60,8.00 1511.78,-386.16,8.00 1512.73,-387.92,8.00 1513.55,-390.02,8.00 1514.27,-392.61,8.00 1514.97,-395.83,8.00" />
  </edge>
  <edge id=":14003_2" function="internal">
    <lane id=":14003_2_0" index="0" speed="33.33" length="21.67" width="3.75" shape="1505.60,-374.63,8.00 1521.44,-389.42,8.00" />
    <lane id=":14003_2_1" index="1" speed="33.33" length="21.67" width="3.75" shape="1508.16,-371.88,8.00 1524.00,-386.68,8.00" />
    <lane id=":14003_2_2" index="2" speed="33.33" length="21.67" width="3.75" shape="1510.72,-369.14,8.00 1526.56,-383.94,8.00" />
    <lane id=":14003_2_3" index="3" allow="custom1" speed="33.33" length="21.67" width="1.00" shape="1512.34,-367.41,8.00 1528.18,-382.20,8.00" />
  </edge>
  <edge id=":15001_0" function="internal">
    <lane id=":15001_0_0" index="0" speed="27.77" length="8.23" width="3.75" shape="1598.32,-427.69,8.00 1597.28,-426.90,8.00 1596.32,-426.48,8.00 1595.42,-426.31,8.00 1594.54,-426.31,8.00 1593.68,-426.35,8.00 1592.81,-426.34,8.00 1591.90,-426.18,8.00 1590.94,-425.76,8.00 1589.91,-424.97,8.00" />
    <lane id=":15001_0_1" index="1" speed="33.33" length="8.23" width="3.75" shape="1595.76,-430.43,8.00 1589.91,-424.97,8.00" />
    <lane id=":15001_0_2" index="2" speed="33.33" length="8.23" width="3.75" shape="1593.20,-433.17,8.00 1587.35,-427.71,8.00" />
    <lane id=":15001_0_3" index="3" speed="33.33" length="8.23" width="3.75" shape="1590.64,-435.91,8.00 1584.79,-430.45,8.00" />
    <lane id=":15001_0_4" index="4" allow="custom1" speed="33.33" length="8.23" width="1.00" shape="1589.02,-437.65,8.00 1583.17,-432.18,8.00" />
  </edge>
  <edge id=":16003_0" function="internal">
    <lane id=":16003_0_0" index="0" allow="emergency" speed="19.12" length="21.66" width="3.00" shape="1688.34,-500.66,8.00 1685.37,-500.08,8.00 1682.98,-499.49,8.00 1681.02,-498.84,8.00 1679.37,-498.07,8.00 1677.88,-497.14,8.00 1676.42,-495.99,8.00 1674.84,-494.58,8.00 1673.01,-492.86,8.00 1670.80,-490.77,8.00" />
    <lane id=":16003_0_1" index="1" speed="19.73" length="21.66" width="3.75" shape="1687.82,-503.87,8.00 1684.56,-503.27,8.00 1681.92,-502.66,8.00 1679.77,-501.98,8.00 1677.94,-501.16,8.00 1676.29,-500.17,8.00 1674.67,-498.93,8.00 1672.93,-497.40,8.00 1670.93,-495.52,8.00 1668.50,-493.23,8.00" />
  </edge>
  <edge id=":16003_2" function="internal">
    <lane id=":16003_2_0" index="0" speed="33.33" length="21.41" width="3.75" shape="1681.59,-510.59,8.00 1665.94,-495.97,8.00" />
    <lane id=":16003_2_1" index="1" speed="33.33" length="21.41" width="3.75" shape="1679.03,-513.33,8.00 1663.38,-498.72,8.00" />
    <lane id=":16003_2_2" index="2" speed="27.77" length="21.41" width="3.75" shape="1676.47,-516.07,8.00 1660.82,-501.46,8.00" />
    <lane id=":16003_2_3" index="3" allow="custom1" speed="33.33" length="21.41" width="1.00" shape="1674.85,-517.81,8.00 1659.20,-503.19,8.00" />
  </edge>
  <edge id=":17002_0" function="internal">
    <lane id=":17002_0_0" index="0" allow="emergency" speed="22.22" length="0.10" width="3.00" shape="-102.18,-2174.96 -102.18,-2174.96" />
    <lane id=":17002_0_1" index="1" allow="emergency" speed="22.22" length="0.10" width="3.75" shape="-98.82,-2174.66 -98.82,-2174.66" />
    <lane id=":17002_0_2" index="2" speed="22.22" length="0.10" width="3.75" shape="-95.09,-2174.32 -95.09,-2174.32" />
    <lane id=":17002_0_3" index="3" speed="22.22" length="0.10" width="3.75" shape="-91.35,-2173.98 -91.35,-2173.98" />
    <lane id=":17002_0_4" index="4" allow="custom1" speed="22.22" length="0.10" width="1.00" shape="-88.99,-2173.77 -88.99,-2173.77" />
  </edge>
  <edge id=":17003_0" function="internal">
    <lane id=":17003_0_0" index="0" allow="emergency" speed="22.22" length="10.23" width="3.00" shape="-105.80,-2135.07 -104.89,-2145.07" />
    <lane id=":17003_0_1" index="1" speed="22.22" length="10.23" width="3.75" shape="-102.44,-2134.76 -102.17,-2136.32 -101.72,-2137.52 -101.13,-2138.46 -100.47,-2139.23 -99.78,-2139.96 -99.11,-2140.74 -98.52,-2141.67 -98.07,-2142.87 -97.80,-2144.43" />
    <lane id=":17003_0_2" index="2" speed="22.22" length="10.23" width="3.75" shape="-98.71,-2134.43 -97.80,-2144.43" />
    <lane id=":17003_0_3" index="3" speed="22.22" length="10.23" width="3.75" shape="-94.97,-2134.09 -94.06,-2144.09" />
    <lane id=":17003_0_4" index="4" allow="custom1" speed="22.22" length="10.23" width="1.00" shape="-92.61,-2133.87 -91.70,-2143.88" />
  </edge>
  <edge id=":2003_0" function="internal">
    <lane id=":2003_0_0" index="0" allow="emergency" speed="18.80" length="21.65" width="3.00" shape="212.42,115.77,8.00 214.96,117.40,8.00 217.10,118.62,8.00 218.97,119.47,8.00 220.70,120.04,8.00 222.43,120.36,8.00 224.28,120.51,8.00 226.40,120.55,8.00 228.92,120.52,8.00 231.96,120.50,8.00" />
    <lane id=":2003_0_1" index="1" speed="19.53" length="21.65" width="3.75" shape="210.59,118.46,8.00 213.37,120.27,8.00 215.71,121.63,8.00 217.75,122.60,8.00 219.64,123.25,8.00 221.52,123.64,8.00 223.55,123.84,8.00 225.87,123.90,8.00 228.63,123.89,8.00 231.96,123.88,8.00" />
  </edge>
  <edge id=":2003_2" function="internal">
    <lane id=":2003_2_0" index="0" speed="33.33" length="21.44" width="3.75" shape="210.52,127.62,8.00 231.96,127.62,8.00" />
    <lane id=":2003_2_1" index="1" speed="33.33" length="21.44" width="3.75" shape="210.52,131.38,8.00 231.96,131.38,8.00" />
    <lane id=":2003_2_2" index="2" speed="27.77" length="21.44" width="3.75" shape="210.52,135.12,8.00 231.96,135.12,8.00" />
    <lane id=":2003_2_3" index="3" allow="custom1" speed="33.33" length="21.44" width="1.00" shape="210.52,137.50,8.00 231.96,137.50,8.00" />
  </edge>
  <edge id=":3001_0" function="internal">
    <lane id=":3001_0_0" index="0" speed="27.77" length="8.23" width="3.75" shape="328.00,123.88,8.00 329.29,124.00,8.00 330.28,124.35,8.00 331.06,124.85,8.00 331.70,125.44,8.00 332.30,126.06,8.00 332.94,126.65,8.00 333.72,127.15,8.00 334.71,127.50,8.00 336.00,127.62,8.00" />
    <lane id=":3001_0_1" index="1" speed="33.33" length="8.23" width="3.75" shape="328.00,127.62,8.00 336.00,127.62,8.00" />
    <lane id=":3001_0_2" index="2" speed="33.33" length="8.23" width="3.75" shape="328.00,131.38,8.00 336.00,131.38,8.00" />
    <lane id=":3001_0_3" index="3" speed="33.33" length="8.23" width="3.75" shape="328.00,135.12,8.00 336.00,135.12,8.00" />
    <lane id=":3001_0_4" index="4" allow="custom1" speed="33.33" length="8.23" width="1.00" shape="328.00,137.50,8.00 336.00,137.50,8.00" />
  </edge>
  <edge id=":4002_0" function="internal">
    <lane id=":4002_0_0" index="0" speed="27.77" length="8.29" width="3.75" shape="-14.56,-142.29 -14.21,-141.04 -13.70,-140.13 -13.07,-139.45 -12.37,-138.92 -11.66,-138.44 -10.96,-137.90 -10.34,-137.23 -9.83,-136.31 -9.47,-135.06" />
    <lane id=":4002_0_1" index="1" speed="33.33" length="8.29" width="3.75" shape="-14.56,-142.29 -13.17,-134.41" />
    <lane id=":4002_0_2" index="2" speed="33.33" length="8.29" width="3.75" shape="-18.25,-141.64 -16.86,-133.76" />
    <lane id=":4002_0_3" index="3" speed="33.33" length="8.29" width="3.75" shape="-21.94,-140.99 -20.55,-133.11" />
  </edge>
  <edge id=":5002_0" function="internal">
    <lane id=":5002_0_0" index="0" speed="27.77" length="8.29" width="3.75" shape="-81.82,179.35,8.00 -83.03,179.82,8.00 -83.90,180.41,8.00 -84.51,181.10,8.00 -84.98,181.84,8.00 -85.39,182.60,8.00 -85.86,183.34,8.00 -86.47,184.02,8.00 -87.34,184.62,8.00 -88.55,185.08,8.00" />
    <lane id=":5002_0_1" index="1" speed="33.33" length="8.29" width="3.75" shape="-81.82,179.35,8.00 -89.54,181.46,8.00" />
    <lane id=":5002_0_2" index="2" speed="33.33" length="8.29" width="3.75" shape="-82.81,175.74,8.00 -90.52,177.84,8.00" />
    <lane id=":5002_0_3" index="3" speed="33.33" length="8.29" width="3.75" shape="-83.80,172.12,8.00 -91.51,174.23,8.00" />
  </edge>
  <edge id=":6003_0" function="internal">
    <lane id=":6003_0_0" index="0" allow="emergency" speed="17.55" length="20.56" width="3.00" shape="-179.02,213.26,8.00 -181.94,214.02,8.00 -184.38,214.62,8.00 -186.45,215.16,8.00 -188.23,215.75,8.00 -189.83,216.47,8.00 -191.36,217.43,8.00 -192.91,218.74,8.00 -194.59,220.49,8.00 -196.51,222.79,8.00" />
    <lane id=":6003_0_1" index="1" speed="16.66" length="22.67" width="3.50" shape="-179.90,210.01,8.00 -183.13,210.85,8.00 -185.81,211.54,8.00 -188.06,212.17,8.00 -190.00,212.85,8.00 -191.75,213.69,8.00 -193.41,214.80,8.00 -195.11,216.27,8.00 -196.95,218.23,8.00 -199.06,220.77,8.00" />
  </edge>
  <edge id=":6003_2" function="internal">
    <lane id=":6003_2_0" index="0" speed="33.33" length="21.72" width="3.75" shape="-180.89,206.39,8.00 -201.84,212.11,8.00" />
    <lane id=":6003_2_1" index="1" speed="33.33" length="21.72" width="3.75" shape="-181.88,202.77,8.00 -202.83,208.49,8.00" />
    <lane id=":6003_2_2" index="2" speed="33.33" length="21.72" width="3.75" shape="-182.86,199.15,8.00 -203.82,204.87,8.00" />
    <lane id=":6003_2_3" index="3" allow="custom1" speed="33.33" length="21.72" width="1.00" shape="-183.49,196.86,8.00 -204.44,202.58,8.00" />
  </edge>
  <edge id=":7001_0" function="internal">
    <lane id=":7001_0_0" index="0" speed="27.77" length="8.23" width="3.75" shape="46.82,260.98 46.56,259.71 46.59,258.66 46.84,257.78 47.21,256.98 47.62,256.22 47.99,255.43 48.24,254.54 48.27,253.50 48.00,252.23" />
    <lane id=":7001_0_1" index="1" speed="33.33" length="8.23" width="3.75" shape="50.40,259.86 48.00,252.23" />
    <lane id=":7001_0_2" index="2" speed="33.33" length="8.23" width="3.75" shape="53.98,258.73 51.58,251.10" />
    <lane id=":7001_0_3" index="3" speed="33.33" length="8.23" width="3.75" shape="57.56,257.61 55.16,249.98" />
    <lane id=":7001_0_4" index="4" allow="custom1" speed="33.33" length="8.23" width="1.00" shape="59.82,256.90 57.42,249.26" />
  </edge>
  <edge id=":8003_0" function="internal">
    <lane id=":8003_0_0" index="0" speed="33.33" length="21.49" width="3.75" shape="85.65,371.98 79.20,351.48" />
    <lane id=":8003_0_1" index="1" speed="33.33" length="21.49" width="3.75" shape="89.22,370.85 82.78,350.36" />
    <lane id=":8003_0_2" index="2" speed="27.77" length="21.49" width="3.75" shape="92.80,369.73 86.36,349.23" />
    <lane id=":8003_0_3" index="3" allow="custom1" speed="33.33" length="21.49" width="1.00" shape="95.07,369.02 88.62,348.52" />
  </edge>
  <edge id=":8003_4" function="internal">
    <lane id=":8003_4_0" index="0" allow="emergency" speed="18.54" length="21.65" width="3.00" shape="73.77,373.65 74.58,370.74 75.11,368.34 75.37,366.31 75.38,364.49 75.16,362.74 74.74,360.93 74.12,358.90 73.34,356.51 72.40,353.62" />
    <lane id=":8003_4_1" index="1" speed="19.34" length="21.65" width="3.75" shape="76.88,374.60 77.79,371.41 78.39,368.78 78.71,366.55 78.76,364.55 78.56,362.63 78.13,360.63 77.48,358.40 76.64,355.78 75.62,352.60" />
  </edge>
  <edge id=":9002_0" function="internal">
    <lane id=":9002_0_0" index="0" speed="27.77" length="8.29" width="3.75" shape="-60.66,-2428.15 -60.56,-2429.45 -60.73,-2430.48 -61.09,-2431.33 -61.56,-2432.07 -62.07,-2432.77 -62.54,-2433.50 -62.90,-2434.35 -63.06,-2435.39 -62.97,-2436.68" />
    <lane id=":9002_0_1" index="1" speed="33.33" length="8.29" width="3.75" shape="-60.66,-2428.15 -59.27,-2436.03" />
    <lane id=":9002_0_2" index="2" speed="33.33" length="8.29" width="3.75" shape="-56.97,-2427.50 -55.58,-2435.38" />
    <lane id=":9002_0_3" index="3" speed="33.33" length="8.29" width="3.75" shape="-53.28,-2426.85 -51.89,-2434.73" />
  </edge>
  <edge id=":cluster_10000_9001_0" function="internal">
    <lane id=":cluster_10000_9001_0_0" index="0" allow="emergency" speed="33.33" length="0" width="3.00" shape="-20.82,-2515.22 -20.82,-2515.22" customShape="1" />
    <lane id=":cluster_10000_9001_0_1" index="1" speed="33.33" length="0" width="3.75" shape="-24.14,-2515.81 -24.14,-2515.81" customShape="1" />
    <lane id=":cluster_10000_9001_0_2" index="2" speed="33.33" length="0" width="3.75" shape="-27.84,-2516.46 -27.84,-2516.46" customShape="1" />
    <lane id=":cluster_10000_9001_0_3" index="3" speed="33.33" length="0" width="3.75" shape="-31.53,-2517.11 -31.53,-2517.11" customShape="1" />
    <lane id=":cluster_10000_9001_0_4" index="4" allow="custom1" speed="33.33" length="0" width="1.00" shape="-33.87,-2517.52 -33.87,-2517.52" customShape="1" />
  </edge>
  <edge id=":cluster_10000_9001_5" function="internal">
    <lane id=":cluster_10000_9001_5_0" index="0" allow="emergency" speed="33.33" length="0" width="3.00" shape="-51.59,-2520.65 -51.59,-2520.65" customShape="1" />
    <lane id=":cluster_10000_9001_5_1" index="1" speed="22.22" length="0" width="3.75" shape="-48.27,-2520.06 -48.27,-2520.06" customShape="1" />
    <lane id=":cluster_10000_9001_5_2" index="2" speed="33.33" length="0" width="3.75" shape="-44.58,-2519.41 -44.58,-2519.41" customShape="1" />
    <lane id=":cluster_10000_9001_5_3" index="3" speed="33.33" length="0" width="3.75" shape="-40.88,-2518.76 -40.88,-2518.76" customShape="1" />
    <lane id=":cluster_10000_9001_5_4" index="4" speed="33.33" length="0" width="3.75" shape="-37.19,-2518.11 -37.19,-2518.11" customShape="1" />
    <lane id=":cluster_10000_9001_5_5" index="5" allow="custom1" speed="33.33" length="0" width="1.00" shape="-34.85,-2517.70 -34.85,-2517.70" customShape="1" />
  </edge>
  <edge id=":cluster_10001_11002_0" function="internal">
    <lane id=":cluster_10001_11002_0_0" index="0" allow="emergency" speed="33.33" length="0" width="3.00" shape="-3.42,-2613.86 -3.42,-2613.86" customShape="1" />
    <lane id=":cluster_10001_11002_0_1" index="1" speed="33.33" length="0" width="3.75" shape="-6.74,-2614.45 -6.74,-2614.45" customShape="1" />
    <lane id=":cluster_10001_11002_0_2" index="2" speed="33.33" length="0" width="3.75" shape="-10.44,-2615.10 -10.44,-2615.10" customShape="1" />
    <lane id=":cluster_10001_11002_0_3" index="3" speed="33.33" length="0" width="3.75" shape="-14.13,-2615.75 -14.13,-2615.75" customShape="1" />
    <lane id=":cluster_10001_11002_0_4" index="4" allow="custom1" speed="33.33" length="0" width="1.00" shape="-16.47,-2616.16 -16.47,-2616.16" customShape="1" />
  </edge>
  <edge id=":cluster_10001_11002_5" function="internal">
    <lane id=":cluster_10001_11002_5_0" index="0" allow="emergency" speed="33.33" length="0" width="3.00" shape="-30.56,-2618.33 -30.56,-2618.33" customShape="1" />
    <lane id=":cluster_10001_11002_5_1" index="1" speed="33.33" length="0" width="3.75" shape="-27.23,-2617.74 -27.23,-2617.74" customShape="1" />
    <lane id=":cluster_10001_11002_5_2" index="2" speed="33.33" length="0" width="3.75" shape="-23.54,-2617.09 -23.54,-2617.09" customShape="1" />
    <lane id=":cluster_10001_11002_5_3" index="3" speed="33.33" length="0" width="3.75" shape="-19.85,-2616.44 -19.85,-2616.44" customShape="1" />
    <lane id=":cluster_10001_11002_5_4" index="4" allow="custom1" speed="33.33" length="0" width="1.00" shape="-17.51,-2616.03 -17.51,-2616.03" customShape="1" />
  </edge>
  <edge id=":cluster_10002_39000_0" function="internal">
    <lane id=":cluster_10002_39000_0_0" index="0" allow="emergency" speed="11.11" length="0" width="3.00" shape="-75.84,-2569.60 -75.84,-2569.60" customShape="1" />
    <lane id=":cluster_10002_39000_0_1" index="1" speed="11.11" length="0" width="3.50" shape="-75.26,-2572.80 -75.26,-2572.80" customShape="1" />
    <lane id=":cluster_10002_39000_0_2" index="2" allow="custom1" speed="11.11" length="0" width="1.00" shape="-74.86,-2575.01 -74.86,-2575.01" customShape="1" />
  </edge>
  <edge id=":cluster_1000_4001_0" function="internal">
    <lane id=":cluster_1000_4001_0_0" index="0" allow="emergency" speed="33.33" length="0" width="3.00" shape="-22.20,-46.70 -22.20,-46.70" customShape="1" />
    <lane id=":cluster_1000_4001_0_1" index="1" speed="33.33" length="0" width="3.75" shape="-18.87,-47.29 -18.87,-47.29" customShape="1" />
    <lane id=":cluster_1000_4001_0_2" index="2" speed="33.33" length="0" width="3.75" shape="-15.18,-47.94 -15.18,-47.94" customShape="1" />
    <lane id=":cluster_1000_4001_0_3" index="3" speed="33.33" length="0" width="3.75" shape="-11.48,-48.59 -11.48,-48.59" customShape="1" />
    <lane id=":cluster_1000_4001_0_4" index="4" allow="custom1" speed="33.33" length="0" width="1.00" shape="-9.15,-49.00 -9.15,-49.00" customShape="1" />
  </edge>
  <edge id=":cluster_1000_4001_5" function="internal">
    <lane id=":cluster_1000_4001_5_0" index="0" allow="emergency" speed="33.33" length="0" width="3.00" shape="8.53,-52.43 8.53,-52.43" customShape="1" />
    <lane id=":cluster_1000_4001_5_1" index="1" speed="22.22" length="0" width="3.75" shape="5.20,-51.84 5.20,-51.84" customShape="1" />
    <lane id=":cluster_1000_4001_5_2" index="2" speed="33.33" length="0" width="3.75" shape="1.51,-51.19 1.51,-51.19" customShape="1" />
    <lane id=":cluster_1000_4001_5_3" index="3" speed="33.33" length="0" width="3.75" shape="-2.18,-50.54 -2.18,-50.54" customShape="1" />
    <lane id=":cluster_1000_4001_5_4" index="4" speed="33.33" length="0" width="3.75" shape="-5.87,-49.89 -5.87,-49.89" customShape="1" />
    <lane id=":cluster_1000_4001_5_5" index="5" allow="custom1" speed="33.33" length="0" width="1.00" shape="-8.21,-49.47 -8.21,-49.47" customShape="1" />
  </edge>
  <edge id=":cluster_1001_20000_0" function="internal">
    <lane id=":cluster_1001_20000_0_0" index="0" allow="emergency" speed="33.33" length="0" width="3.00" shape="-4.82,51.85 -4.82,51.85" customShape="1" />
    <lane id=":cluster_1001_20000_0_1" index="1" speed="33.33" length="0" width="3.75" shape="-1.50,51.24 -1.50,51.24" customShape="1" />
    <lane id=":cluster_1001_20000_0_2" index="2" speed="33.33" length="0" width="3.75" shape="2.19,50.57 2.19,50.57" customShape="1" />
    <lane id=":cluster_1001_20000_0_3" index="3" speed="33.33" length="0" width="3.75" shape="5.88,49.90 5.88,49.90" customShape="1" />
    <lane id=":cluster_1001_20000_0_4" index="4" allow="custom1" speed="33.33" length="0" width="1.00" shape="8.22,49.48 8.22,49.48" customShape="1" />
  </edge>
  <edge id=":cluster_1001_20000_5" function="internal">
    <lane id=":cluster_1001_20000_5_0" index="0" allow="emergency" speed="33.33" length="0" width="3.00" shape="22.20,46.70 22.20,46.70" customShape="1" />
    <lane id=":cluster_1001_20000_5_1" index="1" speed="33.33" length="0" width="3.75" shape="18.87,47.29 18.87,47.29" customShape="1" />
    <lane id=":cluster_1001_20000_5_2" index="2" speed="33.33" length="0" width="3.75" shape="15.18,47.94 15.18,47.94" customShape="1" />
    <lane id=":cluster_1001_20000_5_3" index="3" speed="33.33" length="0" width="3.75" shape="11.49,48.59 11.49,48.59" customShape="1" />
    <lane id=":cluster_1001_20000_5_4" index="4" allow="custom1" speed="33.33" length="0" width="1.00" shape="9.15,49.01 9.15,49.01" customShape="1" />
  </edge>
  <edge id=":cluster_1002_33000_0" function="internal">
    <lane id=":cluster_1002_33000_0_0" index="0" allow="emergency" speed="11.11" length="0" width="3.00" shape="48.12,-14.58 48.12,-14.58" customShape="1" />
    <lane id=":cluster_1002_33000_0_1" index="1" speed="11.11" length="0" width="3.50" shape="48.64,-11.37 48.64,-11.37" customShape="1" />
    <lane id=":cluster_1002_33000_0_2" index="2" allow="custom1" speed="11.11" length="0" width="1.00" shape="49.00,-9.15 49.00,-9.15" customShape="1" />
  </edge>
  <edge id=":cluster_11000_12001_0" function="internal">
    <lane id=":cluster_11000_12001_0_0" index="0" allow="emergency" speed="33.33" length="0" width="3.00" shape="17.63,-2711.68 17.63,-2711.68" customShape="1" />
    <lane id=":cluster_11000_12001_0_1" index="1" speed="27.77" length="0" width="3.75" shape="14.31,-2712.26 14.31,-2712.26" customShape="1" />
    <lane id=":cluster_11000_12001_0_2" index="2" speed="33.33" length="0" width="3.75" shape="10.61,-2712.92 10.61,-2712.92" customShape="1" />
    <lane id=":cluster_11000_12001_0_3" index="3" speed="33.33" length="0" width="3.75" shape="6.92,-2713.57 6.92,-2713.57" customShape="1" />
    <lane id=":cluster_11000_12001_0_4" index="4" speed="27.77" length="0" width="3.75" shape="3.23,-2714.22 3.23,-2714.22" customShape="1" />
    <lane id=":cluster_11000_12001_0_5" index="5" allow="custom1" speed="33.33" length="0" width="1.00" shape="0.89,-2714.63 0.89,-2714.63" customShape="1" />
  </edge>
  <edge id=":cluster_11000_12001_6" function="internal">
    <lane id=":cluster_11000_12001_6_0" index="0" allow="emergency" speed="33.33" length="0" width="3.00" shape="-13.20,-2716.81 -13.20,-2716.81" customShape="1" />
    <lane id=":cluster_11000_12001_6_1" index="1" speed="33.33" length="0" width="3.75" shape="-9.87,-2716.22 -9.87,-2716.22" customShape="1" />
    <lane id=":cluster_11000_12001_6_2" index="2" speed="33.33" length="0" width="3.75" shape="-6.18,-2715.57 -6.18,-2715.57" customShape="1" />
    <lane id=":cluster_11000_12001_6_3" index="3" speed="33.33" length="0" width="3.75" shape="-2.49,-2714.92 -2.49,-2714.92" customShape="1" />
    <lane id=":cluster_11000_12001_6_4" index="4" allow="custom1" speed="33.33" length="0" width="1.00" shape="-0.15,-2714.51 -0.15,-2714.51" customShape="1" />
  </edge>
  <edge id=":cluster_12000_25000_0" function="internal">
    <lane id=":cluster_12000_25000_0_0" index="0" allow="emergency" speed="33.33" length="0" width="3.00" shape="31.31,-2810.85 31.31,-2810.85" customShape="1" />
    <lane id=":cluster_12000_25000_0_1" index="1" speed="33.33" length="0" width="3.75" shape="27.99,-2811.43 27.99,-2811.43" customShape="1" />
    <lane id=":cluster_12000_25000_0_2" index="2" speed="33.33" length="0" width="3.75" shape="24.29,-2812.07 24.29,-2812.07" customShape="1" />
    <lane id=":cluster_12000_25000_0_3" index="3" speed="33.33" length="0" width="3.75" shape="20.60,-2812.71 20.60,-2812.71" customShape="1" />
    <lane id=":cluster_12000_25000_0_4" index="4" allow="custom1" speed="33.33" length="0" width="1.00" shape="18.26,-2813.12 18.26,-2813.12" customShape="1" />
  </edge>
  <edge id=":cluster_12000_25000_5" function="internal">
    <lane id=":cluster_12000_25000_5_0" index="0" allow="emergency" speed="33.33" length="0" width="3.00" shape="4.17,-2815.29 4.17,-2815.29" customShape="1" />
    <lane id=":cluster_12000_25000_5_1" index="1" speed="33.33" length="0" width="3.75" shape="7.50,-2814.70 7.50,-2814.70" customShape="1" />
    <lane id=":cluster_12000_25000_5_2" index="2" speed="33.33" length="0" width="3.75" shape="11.19,-2814.05 11.19,-2814.05" customShape="1" />
    <lane id=":cluster_12000_25000_5_3" index="3" speed="33.33" length="0" width="3.75" shape="14.88,-2813.40 14.88,-2813.40" customShape="1" />