<?xml version="1.0" encoding="UTF-8"?>
<!-- generated on 2024-09-02 16:43:57 by Eclipse SUMO netconvert Version 1.18.0
<configuration xmlns:xsi="http://www.w3.org/2001/XMLSchema-instance" xsi:noNamespaceSchemaLocation="http://sumo.dlr.de/xsd/netconvertConfiguration.xsd">

    <input>
        <sumo-net-file value="E:\Work\PanoSimDatabase33.11\PanoSimDatabase\Block\Temp\temp_1dcb76e0857d4c63aeb0c70f39a827f8.net.xml"/>
    </input>

    <output>
        <precision value="2"/>
        <output-file value="E:\Work\PanoSimDatabase33.11\PanoSimDatabase\Block\Temp\Highway.net.xml"/>
    </output>

    <processing>
        <geometry.min-radius.fix.railways value="false"/>
        <geometry.max-grade.fix value="false"/>
        <offset.disable-normalization value="true"/>
        <lefthand value="0"/>
    </processing>

    <junctions>
        <no-internal-links value="true"/>
        <no-turnarounds value="true"/>
        <junctions.join value="true"/>
        <junctions.join-same value="true"/>
        <junctions.corner-detail value="10"/>
        <junctions.internal-link-detail value="10"/>
        <junctions.limit-turn-speed value="5.50"/>
        <rectangular-lane-cut value="0"/>
    </junctions>

    <pedestrian>
        <walkingareas value="0"/>
    </pedestrian>

</configuration>
-->
<net version="1.16" junctionCornerDetail="10" junctionLinkDetail="10" limitTurnSpeed="5.50" xmlns:xsi="http://www.w3.org/2001/XMLSchema-instance" xsi:noNamespaceSchemaLocation="http://sumo.dlr.de/xsd/net_file.xsd">
  <location netOffset="0.00,0.00" convBoundary="0.00,0.00,0.00,500.00" origBoundary="-10000000000.00,-10000000000.00,10000000000.00,10000000000.00" projParameter="!" />
  <edge id="1000" from="1001" to="1000" priority="-1">
    <lane id="1000_0" index="0" allow="emergency" speed="33.33" length="500.00" width="3.00" shape="-13.75,500.00 -13.75,0.00" />
    <lane id="1000_1" index="1" speed="33.33" length="500.00" width="3.75" shape="-10.38,500.00 -10.38,0.00" />
    <lane id="1000_2" index="2" speed="33.33" length="500.00" width="3.75" shape="-6.62,500.00 -6.62,0.00" />
    <lane id="1000_3" index="3" speed="33.33" length="500.00" width="3.75" shape="-2.88,500.00 -2.88,0.00" />
    <lane id="1000_4" index="4" allow="custom1" speed="33.33" length="500.00" width="1.00" shape="-0.50,500.00 -0.50,0.00" />
  </edge>
  <edge id="1001" from="1000" to="1001" priority="-1">
    <lane id="1001_0" index="0" allow="emergency" speed="33.33" length="500.00" width="3.00" shape="13.75,0.00 13.75,500.00" />
    <lane id="1001_1" index="1" speed="33.33" length="500.00" width="3.75" shape="10.38,0.00 10.38,500.00" />
    <lane id="1001_2" index="2" speed="33.33" length="500.00" width="3.75" shape="6.62,0.00 6.62,500.00" />
    <lane id="1001_3" index="3" speed="33.33" length="500.00" width="3.75" shape="2.88,0.00 2.88,500.00" />
    <lane id="1001_4" index="4" allow="custom1" speed="33.33" length="500.00" width="1.00" shape="0.50,0.00 0.50,500.00" />
  </edge>
  <junction id="1000" type="dead_end" x="0.00" y="0.00" incLanes="1000_0 1000_1 1000_2 1000_3 1000_4" intLanes="" shape="0.00,0.00 -15.25,0.00 0.00,0.00" />
  <junction id="1001" type="dead_end" x="0.00" y="500.00" incLanes="1001_0 1001_1 1001_2 1001_3 1001_4" intLanes="" shape="0.00,500.00 15.25,500.00 0.00,500.00" />
</net>