<?xml version="1.0" encoding="UTF-8"?>
<!-- generated on 2023-10-18 09:12:41 by Eclipse SUMO netconvert Version 1.18.0
<configuration xmlns:xsi="http://www.w3.org/2001/XMLSchema-instance" xsi:noNamespaceSchemaLocation="http://sumo.dlr.de/xsd/netconvertConfiguration.xsd">

    <input>
        <sumo-net-file value="D:\Database\Block\Temp\temp_7c3898f7f6fc4664a443825fa52c56fc.net.xml,D:\Database\Block\Temp\temp_98f1544d13ec4f52a73071ea38b4999d.net.xml,D:\Database\Block\Temp\temp_869687dafaba4e9b9c26aa6ca166806a.net.xml"/>
    </input>

    <output>
        <precision value="2"/>
        <output-file value="D:\Database\Block\Temp\PanoTown.net.xml"/>
    </output>

    <processing>
        <geometry.min-radius.fix.railways value="false"/>
        <geometry.max-grade.fix value="false"/>
        <offset.disable-normalization value="true"/>
        <lefthand value="0"/>
    </processing>

    <junctions>
        <no-turnarounds value="true"/>
        <junctions.join value="true"/>
        <junctions.join-same value="true"/>
        <junctions.corner-detail value="10"/>
        <junctions.internal-link-detail value="10"/>
        <junctions.limit-turn-speed value="5.50"/>
        <rectangular-lane-cut value="0"/>
    </junctions>

    <pedestrian>
        <walkingareas value="0"/>
    </pedestrian>

</configuration>
-->
<net version="1.16" junctionCornerDetail="10" junctionLinkDetail="10" limitTurnSpeed="5.50" xmlns:xsi="http://www.w3.org/2001/XMLSchema-instance" xsi:noNamespaceSchemaLocation="http://sumo.dlr.de/xsd/net_file.xsd">
  <location netOffset="0.00,0.00" convBoundary="-400.00,-100.00,200.00,200.00" origBoundary="-10000000000.00,-10000000000.00,10000000000.00,10000000000.00" projParameter="!" />
  <edge id=":1000_0" function="internal">
    <lane id=":1000_0_0" index="0" speed="8.15" length="14.67" width="3.50" shape="-5.25,14.30 -5.36,12.40 -5.70,10.72 -6.26,9.27 -7.04,8.04 -8.04,7.04 -9.27,6.26 -10.72,5.70 -12.40,5.36 -14.30,5.25" />
  </edge>
  <edge id=":1000_1" function="internal">
    <lane id=":1000_1_0" index="0" speed="13.89" length="28.60" width="3.50" shape="-5.25,14.30 -5.25,-14.30" />
    <lane id=":1000_1_1" index="1" speed="13.89" length="28.60" width="3.50" shape="-1.75,14.30 -1.75,-14.30" />
  </edge>
  <edge id=":1000_3" function="internal">
    <lane id=":1000_3_0" index="0" speed="10.68" length="6.41" width="3.50" shape="-1.75,14.30 -1.55,10.93 -0.96,7.96" />
  </edge>
  <edge id=":1000_16" function="internal">
    <lane id=":1000_16_0" index="0" speed="10.68" length="19.61" width="3.50" shape="-0.96,7.96 0.03,5.38 1.42,3.20 3.20,1.42 5.38,0.03 7.96,-0.96 10.93,-1.55 14.30,-1.75" />
  </edge>
  <edge id=":1000_4" function="internal">
    <lane id=":1000_4_0" index="0" speed="8.15" length="14.67" width="3.50" shape="14.30,5.25 12.40,5.36 10.72,5.70 9.27,6.26 8.04,7.04 7.04,8.04 6.26,9.27 5.70,10.72 5.36,12.40 5.25,14.30" />
  </edge>
  <edge id=":1000_5" function="internal">
    <lane id=":1000_5_0" index="0" speed="13.89" length="28.60" width="3.50" shape="14.30,5.25 -14.30,5.25" />
    <lane id=":1000_5_1" index="1" speed="13.89" length="28.60" width="3.50" shape="14.30,1.75 -14.30,1.75" />
  </edge>
  <edge id=":1000_7" function="internal">
    <lane id=":1000_7_0" index="0" speed="10.68" length="26.02" width="3.50" shape="14.30,1.75 10.93,1.55 7.96,0.96 5.38,-0.03 3.20,-1.42 1.42,-3.20 0.03,-5.38 -0.96,-7.96 -1.55,-10.93 -1.75,-14.30" />
  </edge>
  <edge id=":1000_8" function="internal">
    <lane id=":1000_8_0" index="0" speed="8.15" length="14.67" width="3.50" shape="5.25,-14.30 5.36,-12.40 5.70,-10.72 6.26,-9.27 7.04,-8.04 8.04,-7.04 9.27,-6.26 10.72,-5.70 12.40,-5.36 14.30,-5.25" />
  </edge>
  <edge id=":1000_9" function="internal">
    <lane id=":1000_9_0" index="0" speed="13.89" length="28.60" width="3.50" shape="5.25,-14.30 5.25,14.30" />
    <lane id=":1000_9_1" index="1" speed="13.89" length="28.60" width="3.50" shape="1.75,-14.30 1.75,14.30" />
  </edge>
  <edge id=":1000_11" function="internal">
    <lane id=":1000_11_0" index="0" speed="10.68" length="6.41" width="3.50" shape="1.75,-14.30 1.55,-10.93 0.96,-7.96" />
  </edge>
  <edge id=":1000_17" function="internal">
    <lane id=":1000_17_0" index="0" speed="10.68" length="19.61" width="3.50" shape="0.96,-7.96 -0.03,-5.38 -1.42,-3.20 -3.20,-1.42 -5.38,-0.03 -7.96,0.96 -10.93,1.55 -14.30,1.75" />
  </edge>
  <edge id=":1000_12" function="internal">
    <lane id=":1000_12_0" index="0" speed="8.15" length="14.67" width="3.50" shape="-14.30,-5.25 -12.40,-5.36 -10.72,-5.70 -9.27,-6.26 -8.04,-7.04 -7.04,-8.04 -6.26,-9.27 -5.70,-10.72 -5.36,-12.40 -5.25,-14.30" />
  </edge>
  <edge id=":1000_13" function="internal">
    <lane id=":1000_13_0" index="0" speed="13.89" length="28.60" width="3.50" shape="-14.30,-5.25 14.30,-5.25" />
    <lane id=":1000_13_1" index="1" speed="13.89" length="28.60" width="3.50" shape="-14.30,-1.75 14.30,-1.75" />
  </edge>
  <edge id=":1000_15" function="internal">
    <lane id=":1000_15_0" index="0" speed="10.68" length="26.02" width="3.50" shape="-14.30,-1.75 -10.93,-1.55 -7.96,-0.96 -5.38,0.03 -3.20,1.42 -1.42,3.20 -0.03,5.38 0.96,7.96 1.55,10.93 1.75,14.30" />
  </edge>
  <edge id=":12003_0" function="internal">
    <lane id=":12003_0_0" index="0" speed="13.89" length="23.51" width="3.50" shape="-405.25,23.38 -405.25,-0.13" />
    <lane id=":12003_0_1" index="1" speed="13.89" length="23.51" width="3.50" shape="-401.75,23.38 -401.75,-0.13" />
  </edge>
  <edge id=":12003_2" function="internal">
    <lane id=":12003_2_0" index="0" speed="13.22" length="4.13" width="3.50" shape="-401.75,23.38 -401.52,21.22 -400.91,19.36" />
  </edge>
  <edge id=":12003_8" function="internal">
    <lane id=":12003_8_0" index="0" speed="13.22" length="23.20" width="3.50" shape="-400.91,19.36 -400.83,19.10 -399.68,17.01 -398.08,14.96 -396.01,12.94 -393.49,10.95 -390.50,9.00 -387.06,7.08 -383.15,5.20" />
  </edge>
  <edge id=":12003_3" function="internal">
    <lane id=":12003_3_0" index="0" speed="11.22" length="19.36" width="3.50" shape="-380.29,11.59 -383.32,13.04 -386.00,14.46 -388.32,15.84 -390.29,17.19 -391.89,18.50 -393.14,19.77 -394.04,21.01 -394.57,22.21 -394.75,23.38" />
  </edge>
  <edge id=":12003_4" function="internal">
    <lane id=":12003_4_0" index="0" speed="9.62" length="27.66" width="3.50" shape="-381.72,8.39 -385.31,9.82 -388.69,10.73 -391.81,11.09 -394.60,10.88 -397.02,10.05 -399.00,8.56 -400.49,6.40 -401.43,3.51 -401.75,-0.13" />
  </edge>
  <edge id=":12003_5" function="internal">
    <lane id=":12003_5_0" index="0" speed="6.79" length="13.01" width="3.50" shape="-394.75,-0.13 -394.62,1.22 -394.25,2.29 -393.62,3.09 -392.74,3.60 -391.61,3.84 -390.23,3.80 -388.60,3.48 -386.72,2.88 -384.59,2.01" />
  </edge>
  <edge id=":12003_6" function="internal">
    <lane id=":12003_6_0" index="0" speed="13.89" length="23.51" width="3.50" shape="-394.75,-0.13 -394.75,23.38" />
    <lane id=":12003_6_1" index="1" speed="13.89" length="23.51" width="3.50" shape="-398.25,-0.13 -398.25,23.38" />
  </edge>
  <edge id=":13003_0" function="internal">
    <lane id=":13003_0_0" index="0" speed="11.22" length="19.36" width="3.50" shape="-11.59,-80.29 -13.04,-83.32 -14.46,-86.00 -15.84,-88.32 -17.19,-90.29 -18.50,-91.89 -19.77,-93.14 -21.01,-94.04 -22.21,-94.57 -23.38,-94.75" />
  </edge>
  <edge id=":13003_1" function="internal">
    <lane id=":13003_1_0" index="0" speed="9.62" length="27.66" width="3.50" shape="-8.39,-81.72 -9.82,-85.31 -10.73,-88.69 -11.09,-91.81 -10.88,-94.60 -10.05,-97.02 -8.56,-99.00 -6.40,-100.49 -3.51,-101.43 0.13,-101.75" />
  </edge>
  <edge id=":13003_2" function="internal">
    <lane id=":13003_2_0" index="0" speed="6.79" length="13.01" width="3.50" shape="0.13,-94.75 -1.22,-94.62 -2.29,-94.25 -3.09,-93.62 -3.60,-92.74 -3.84,-91.61 -3.80,-90.23 -3.48,-88.60 -2.88,-86.72 -2.01,-84.59" />
  </edge>
  <edge id=":13003_3" function="internal">
    <lane id=":13003_3_0" index="0" speed="13.89" length="23.51" width="3.50" shape="0.13,-94.75 -23.38,-94.75" />
    <lane id=":13003_3_1" index="1" speed="13.89" length="23.51" width="3.50" shape="0.13,-98.25 -23.38,-98.25" />
  </edge>
  <edge id=":13003_5" function="internal">
    <lane id=":13003_5_0" index="0" speed="13.89" length="23.51" width="3.50" shape="-23.38,-105.25 0.13,-105.25" />
    <lane id=":13003_5_1" index="1" speed="13.89" length="23.51" width="3.50" shape="-23.38,-101.75 0.13,-101.75" />
  </edge>
  <edge id=":13003_7" function="internal">
    <lane id=":13003_7_0" index="0" speed="13.22" length="4.13" width="3.50" shape="-23.38,-101.75 -21.22,-101.52 -19.36,-100.91" />
  </edge>
  <edge id=":13003_8" function="internal">
    <lane id=":13003_8_0" index="0" speed="13.22" length="23.20" width="3.50" shape="-19.36,-100.91 -19.10,-100.83 -17.01,-99.68 -14.96,-98.08 -12.94,-96.01 -10.95,-93.49 -9.00,-90.50 -7.08,-87.06 -5.20,-83.15" />
  </edge>
  <edge id=":18000_0" function="internal">
    <lane id=":18000_0_0" index="0" speed="13.89" length="15.00" width="3.50" shape="-5.25,107.50 -5.25,92.50" />
    <lane id=":18000_0_1" index="1" speed="13.89" length="15.00" width="3.50" shape="-1.75,107.50 -1.75,92.50" />
  </edge>
  <edge id=":18000_2" function="internal">
    <lane id=":18000_2_0" index="0" speed="8.95" length="4.05" width="3.50" shape="-1.75,107.50 -1.59,105.56 -1.12,103.85 -0.97,103.56" />
  </edge>
  <edge id=":18000_8" function="internal">
    <lane id=":18000_8_0" index="0" speed="8.95" length="13.87" width="3.50" shape="-0.97,103.56 -0.33,102.36 0.77,101.10 2.19,100.08 3.92,99.28 5.96,98.71 8.32,98.36 11.00,98.25" />
  </edge>
  <edge id=":18000_3" function="internal">
    <lane id=":18000_3_0" index="0" speed="6.63" length="9.32" width="3.50" shape="11.00,101.75 9.79,101.82 8.73,102.03 7.81,102.39 7.02,102.89 6.39,103.52 5.89,104.31 5.53,105.23 5.32,106.29 5.25,107.50" />
  </edge>
  <edge id=":18000_4" function="internal">
    <lane id=":18000_4_0" index="0" speed="8.95" length="17.92" width="3.50" shape="11.00,101.75 8.32,101.64 5.96,101.29 3.92,100.72 2.19,99.92 0.77,98.90 -0.33,97.64 -1.12,96.15 -1.59,94.44 -1.75,92.50" />
  </edge>
  <edge id=":18000_5" function="internal">
    <lane id=":18000_5_0" index="0" speed="6.63" length="9.32" width="3.50" shape="5.25,92.50 5.32,93.71 5.53,94.77 5.89,95.69 6.39,96.48 7.02,97.11 7.81,97.61 8.73,97.97 9.79,98.18 11.00,98.25" />
  </edge>
  <edge id=":18000_6" function="internal">
    <lane id=":18000_6_0" index="0" speed="13.89" length="15.00" width="3.50" shape="5.25,92.50 5.25,107.50" />
    <lane id=":18000_6_1" index="1" speed="13.89" length="15.00" width="3.50" shape="1.75,92.50 1.75,107.50" />
  </edge>
  <edge id=":19000_0" function="internal">
    <lane id=":19000_0_0" index="0" speed="6.63" length="9.32" width="3.50" shape="194.75,107.50 194.68,106.29 194.47,105.23 194.11,104.31 193.61,103.52 192.98,102.89 192.19,102.39 191.27,102.03 190.21,101.82 189.00,101.75" />
  </edge>
  <edge id=":19000_1" function="internal">
    <lane id=":19000_1_0" index="0" speed="13.89" length="15.00" width="3.50" shape="194.75,107.50 194.75,92.50" />
    <lane id=":19000_1_1" index="1" speed="13.89" length="15.00" width="3.50" shape="198.25,107.50 198.25,92.50" />
  </edge>
  <edge id=":19000_3" function="internal">
    <lane id=":19000_3_0" index="0" speed="13.89" length="15.00" width="3.50" shape="205.25,92.50 205.25,107.50" />
    <lane id=":19000_3_1" index="1" speed="13.89" length="15.00" width="3.50" shape="201.75,92.50 201.75,107.50" />
  </edge>
  <edge id=":19000_5" function="internal">
    <lane id=":19000_5_0" index="0" speed="8.95" length="4.05" width="3.50" shape="201.75,92.50 201.59,94.44 201.12,96.15 200.97,96.44" />
  </edge>
  <edge id=":19000_8" function="internal">
    <lane id=":19000_8_0" index="0" speed="8.95" length="13.87" width="3.50" shape="200.97,96.44 200.33,97.64 199.23,98.90 197.81,99.92 196.08,100.72 194.04,101.29 191.68,101.64 189.00,101.75" />
  </edge>
  <edge id=":19000_6" function="internal">
    <lane id=":19000_6_0" index="0" speed="6.63" length="9.32" width="3.50" shape="189.00,98.25 190.21,98.18 191.27,97.97 192.19,97.61 192.98,97.11 193.61,96.48 194.11,95.69 194.47,94.77 194.68,93.71 194.75,92.50" />
  </edge>
  <edge id=":19000_7" function="internal">
    <lane id=":19000_7_0" index="0" speed="8.95" length="17.92" width="3.50" shape="189.00,98.25 191.68,98.36 194.04,98.71 196.08,99.28 197.81,100.08 199.23,101.10 200.33,102.36 201.12,103.85 201.59,105.56 201.75,107.50" />
  </edge>
  <edge id=":4003_0" function="internal">
    <lane id=":4003_0_0" index="0" speed="11.22" length="19.36" width="3.50" shape="-211.59,19.71 -213.04,16.68 -214.46,14.00 -215.84,11.68 -217.19,9.71 -218.50,8.11 -219.77,6.86 -221.01,5.96 -222.21,5.43 -223.38,5.25" />
  </edge>
  <edge id=":4003_1" function="internal">
    <lane id=":4003_1_0" index="0" speed="9.62" length="27.66" width="3.50" shape="-208.39,18.28 -209.82,14.69 -210.73,11.31 -211.09,8.19 -210.88,5.40 -210.05,2.98 -208.56,1.00 -206.40,-0.49 -203.51,-1.43 -199.87,-1.75" />
  </edge>
  <edge id=":4003_2" function="internal">
    <lane id=":4003_2_0" index="0" speed="6.79" length="13.01" width="3.50" shape="-199.87,5.25 -201.22,5.38 -202.29,5.75 -203.09,6.38 -203.60,7.26 -203.84,8.39 -203.80,9.77 -203.48,11.40 -202.88,13.28 -202.01,15.41" />
  </edge>
  <edge id=":4003_3" function="internal">
    <lane id=":4003_3_0" index="0" speed="13.89" length="23.51" width="3.50" shape="-199.87,5.25 -223.38,5.25" />
    <lane id=":4003_3_1" index="1" speed="13.89" length="23.51" width="3.50" shape="-199.87,1.75 -223.38,1.75" />
  </edge>
  <edge id=":4003_5" function="internal">
    <lane id=":4003_5_0" index="0" speed="13.89" length="23.51" width="3.50" shape="-223.38,-5.25 -199.87,-5.25" />
    <lane id=":4003_5_1" index="1" speed="13.89" length="23.51" width="3.50" shape="-223.38,-1.75 -199.87,-1.75" />
  </edge>
  <edge id=":4003_7" function="internal">
    <lane id=":4003_7_0" index="0" speed="13.22" length="4.13" width="3.50" shape="-223.38,-1.75 -221.22,-1.52 -219.36,-0.91" />
  </edge>
  <edge id=":4003_8" function="internal">
    <lane id=":4003_8_0" index="0" speed="13.22" length="23.20" width="3.50" shape="-219.36,-0.91 -219.10,-0.83 -217.01,0.32 -214.96,1.92 -212.94,3.99 -210.95,6.51 -209.00,9.50 -207.08,12.94 -205.20,16.85" />
  </edge>
  <edge id=":8000_0" function="internal">
    <lane id=":8000_0_0" index="0" speed="6.63" length="9.32" width="3.50" shape="194.75,11.00 194.68,9.79 194.47,8.73 194.11,7.81 193.61,7.02 192.98,6.39 192.19,5.89 191.27,5.53 190.21,5.32 189.00,5.25" />
  </edge>
  <edge id=":8000_1" function="internal">
    <lane id=":8000_1_0" index="0" speed="13.89" length="22.00" width="3.50" shape="194.75,11.00 194.75,-11.00" />
    <lane id=":8000_1_1" index="1" speed="13.89" length="22.00" width="3.50" shape="198.25,11.00 198.25,-11.00" />
  </edge>
  <edge id=":8000_3" function="internal">
    <lane id=":8000_3_0" index="0" speed="13.89" length="22.00" width="3.50" shape="205.25,-11.00 205.25,11.00" />
    <lane id=":8000_3_1" index="1" speed="13.89" length="22.00" width="3.50" shape="201.75,-11.00 201.75,11.00" />
  </edge>
  <edge id=":8000_5" function="internal">
    <lane id=":8000_5_0" index="0" speed="9.57" length="5.59" width="3.50" shape="201.75,-11.00 201.59,-8.32 201.12,-5.96 200.94,-5.49" />
  </edge>
  <edge id=":8000_8" function="internal">
    <lane id=":8000_8_0" index="0" speed="9.57" length="15.08" width="3.50" shape="200.94,-5.49 200.33,-3.92 199.23,-2.19 197.81,-0.77 196.08,0.33 194.04,1.12 191.68,1.59 189.00,1.75" />
  </edge>
  <edge id=":8000_6" function="internal">
    <lane id=":8000_6_0" index="0" speed="6.63" length="9.32" width="3.50" shape="189.00,-5.25 190.21,-5.32 191.27,-5.53 192.19,-5.89 192.98,-6.39 193.61,-7.02 194.11,-7.81 194.47,-8.73 194.68,-9.79 194.75,-11.00" />
  </edge>
  <edge id=":8000_7" function="internal">
    <lane id=":8000_7_0" index="0" speed="9.57" length="20.67" width="3.50" shape="189.00,-1.75 191.68,-1.59 194.04,-1.12 196.08,-0.33 197.81,0.77 199.23,2.19 200.33,3.92 201.12,5.96 201.59,8.32 201.75,11.00" />
  </edge>
  <edge id=":cluster_10000_11000_0" function="internal">
    <lane id=":cluster_10000_11000_0_0" index="0" speed="16.67" length="0" width="3.50" shape="-249.80,205.25 -249.80,205.25" customShape="1" />
    <lane id=":cluster_10000_11000_0_1" index="1" speed="16.67" length="0" width="3.50" shape="-249.83,201.75 -249.83,201.75" customShape="1" />
  </edge>
  <edge id=":cluster_10000_11000_2" function="internal">
    <lane id=":cluster_10000_11000_2_0" index="0" speed="16.67" length="0" width="3.50" shape="-250.15,194.75 -250.15,194.75" customShape="1" />
    <lane id=":cluster_10000_11000_2_1" index="1" speed="16.67" length="0" width="3.50" shape="-250.15,198.25 -250.15,198.25" customShape="1" />
  </edge>
  <edge id=":cluster_10001_7001_0" function="internal">
    <lane id=":cluster_10001_7001_0_0" index="0" speed="16.67" length="0" width="3.50" shape="-205.25,150.00 -205.25,150.00" customShape="1" />
    <lane id=":cluster_10001_7001_0_1" index="1" speed="16.67" length="0" width="3.50" shape="-201.75,150.00 -201.75,150.00" customShape="1" />
  </edge>
  <edge id=":cluster_10001_7001_2" function="internal">
    <lane id=":cluster_10001_7001_2_0" index="0" speed="16.67" length="0" width="3.50" shape="-194.75,150.00 -194.75,150.00" customShape="1" />
    <lane id=":cluster_10001_7001_2_1" index="1" speed="16.67" length="0" width="3.50" shape="-198.25,150.00 -198.25,150.00" customShape="1" />
  </edge>
  <edge id=":cluster_1001_2001_0" function="internal">
    <lane id=":cluster_1001_2001_0_0" index="0" speed="13.89" length="0" width="3.50" shape="50.00,5.25 50.00,5.25" customShape="1" />
    <lane id=":cluster_1001_2001_0_1" index="1" speed="13.89" length="0" width="3.50" shape="50.00,1.75 50.00,1.75" customShape="1" />
  </edge>
  <edge id=":cluster_1001_2001_2" function="internal">
    <lane id=":cluster_1001_2001_2_0" index="0" speed="16.67" length="0" width="3.50" shape="50.00,-5.25 50.00,-5.25" customShape="1" />
    <lane id=":cluster_1001_2001_2_1" index="1" speed="16.67" length="0" width="3.50" shape="50.00,-1.75 50.00,-1.75" customShape="1" />
  </edge>
  <edge id=":cluster_1002_18003_0" function="internal">
    <lane id=":cluster_1002_18003_0_0" index="0" speed="13.89" length="0" width="3.50" shape="-5.25,50.00 -5.25,50.00" customShape="1" />
    <lane id=":cluster_1002_18003_0_1" index="1" speed="13.89" length="0" width="3.50" shape="-1.75,50.00 -1.75,50.00" customShape="1" />
  </edge>
  <edge id=":cluster_1002_18003_2" function="internal">
    <lane id=":cluster_1002_18003_2_0" index="0" speed="13.89" length="0" width="3.50" shape="5.25,50.00 5.25,50.00" customShape="1" />
    <lane id=":cluster_1002_18003_2_1" index="1" speed="13.89" length="0" width="3.50" shape="1.75,50.00 1.75,50.00" customShape="1" />
  </edge>
  <edge id=":cluster_1003_13000_0" function="internal">
    <lane id=":cluster_1003_13000_0_0" index="0" speed="13.89" length="0" width="3.50" shape="-5.25,-49.85 -5.25,-49.85" customShape="1" />
    <lane id=":cluster_1003_13000_0_1" index="1" speed="13.89" length="0" width="3.50" shape="-1.75,-49.85 -1.75,-49.85" customShape="1" />
  </edge>
  <edge id=":cluster_1003_13000_2" function="internal">
    <lane id=":cluster_1003_13000_2_0" index="0" speed="13.89" length="0" width="3.50" shape="5.25,-50.21 5.25,-50.21" customShape="1" />
    <lane id=":cluster_1003_13000_2_1" index="1" speed="13.89" length="0" width="3.50" shape="1.75,-50.17 1.75,-50.17" customShape="1" />
  </edge>
  <edge id=":cluster_1004_3000_0" function="internal">
    <lane id=":cluster_1004_3000_0_0" index="0" speed="16.67" length="0" width="3.50" shape="-50.00,5.25 -50.00,5.25" customShape="1" />
    <lane id=":cluster_1004_3000_0_1" index="1" speed="16.67" length="0" width="3.50" shape="-50.00,1.75 -50.00,1.75" customShape="1" />
  </edge>
  <edge id=":cluster_1004_3000_2" function="internal">
    <lane id=":cluster_1004_3000_2_0" index="0" speed="13.89" length="0" width="3.50" shape="-50.00,-5.25 -50.00,-5.25" customShape="1" />
    <lane id=":cluster_1004_3000_2_1" index="1" speed="13.89" length="0" width="3.50" shape="-50.00,-1.75 -50.00,-1.75" customShape="1" />
  </edge>
  <edge id=":cluster_11001_9001_0" function="internal">
    <lane id=":cluster_11001_9001_0_0" index="0" speed="16.67" length="0" width="3.50" shape="-350.00,205.25 -350.00,205.25" customShape="1" />
    <lane id=":cluster_11001_9001_0_1" index="1" speed="16.67" length="0" width="3.50" shape="-350.00,201.75 -350.00,201.75" customShape="1" />
  </edge>
  <edge id=":cluster_11001_9001_2" function="internal">
    <lane id=":cluster_11001_9001_2_0" index="0" speed="16.67" length="0" width="3.50" shape="-350.00,194.75 -350.00,194.75" customShape="1" />
    <lane id=":cluster_11001_9001_2_1" index="1" speed="16.67" length="0" width="3.50" shape="-350.00,198.25 -350.00,198.25" customShape="1" />
  </edge>
  <edge id=":cluster_12000_5000_0" function="internal">
    <lane id=":cluster_12000_5000_0_0" index="0" speed="13.89" length="0" width="3.50" shape="-349.85,5.25 -349.85,5.25" customShape="1" />
    <lane id=":cluster_12000_5000_0_1" index="1" speed="13.89" length="0" width="3.50" shape="-349.85,1.75 -349.85,1.75" customShape="1" />
  </edge>
  <edge id=":cluster_12000_5000_2" function="internal">
    <lane id=":cluster_12000_5000_2_0" index="0" speed="16.67" length="0" width="3.50" shape="-350.21,-5.25 -350.21,-5.25" customShape="1" />
    <lane id=":cluster_12000_5000_2_1" index="1" speed="16.67" length="0" width="3.50" shape="-350.17,-1.75 -350.17,-1.75" customShape="1" />
  </edge>
  <edge id=":cluster_12001_16001_0" function="internal">
    <lane id=":cluster_12001_16001_0_0" index="0" speed="16.67" length="0" width="3.50" shape="-405.25,-50.00 -405.25,-50.00" customShape="1" />
    <lane id=":cluster_12001_16001_0_1" index="1" speed="16.67" length="0" width="3.50" shape="-401.75,-50.00 -401.75,-50.00" customShape="1" />
  </edge>
  <edge id=":cluster_12001_16001_2" function="internal">
    <lane id=":cluster_12001_16001_2_0" index="0" speed="13.89" length="0" width="3.50" shape="-394.75,-50.00 -394.75,-50.00" customShape="1" />
    <lane id=":cluster_12001_16001_2_1" index="1" speed="13.89" length="0" width="3.50" shape="-398.25,-50.00 -398.25,-50.00" customShape="1" />
  </edge>
  <edge id=":cluster_12002_6001_0" function="internal">
    <lane id=":cluster_12002_6001_0_0" index="0" speed="13.89" length="0" width="3.50" shape="-405.25,50.00 -405.25,50.00" customShape="1" />
    <lane id=":cluster_12002_6001_0_1" index="1" speed="13.89" length="0" width="3.50" shape="-401.75,50.00 -401.75,50.00" customShape="1" />
  </edge>
  <edge id=":cluster_12002_6001_2" function="internal">
    <lane id=":cluster_12002_6001_2_0" index="0" speed="16.67" length="0" width="3.50" shape="-394.75,50.00 -394.75,50.00" customShape="1" />
    <lane id=":cluster_12002_6001_2_1" index="1" speed="16.67" length="0" width="3.50" shape="-398.25,50.00 -398.25,50.00" customShape="1" />
  </edge>
  <edge id=":cluster_13001_21000_0" function="internal">
    <lane id=":cluster_13001_21000_0_0" index="0" speed="13.89" length="0" width="3.50" shape="50.00,-94.75 50.00,-94.75" customShape="1" />
    <lane id=":cluster_13001_21000_0_1" index="1" speed="13.89" length="0" width="3.50" shape="50.00,-98.25 50.00,-98.25" customShape="1" />
  </edge>
  <edge id=":cluster_13001_21000_2" function="internal">
    <lane id=":cluster_13001_21000_2_0" index="0" speed="16.67" length="0" width="3.50" shape="50.00,-105.25 50.00,-105.25" customShape="1" />
    <lane id=":cluster_13001_21000_2_1" index="1" speed="16.67" length="0" width="3.50" shape="50.00,-101.75 50.00,-101.75" customShape="1" />
  </edge>
  <edge id=":cluster_13002_14001_0" function="internal">
    <lane id=":cluster_13002_14001_0_0" index="0" speed="16.67" length="0" width="3.50" shape="-50.00,-94.75 -50.00,-94.75" customShape="1" />
    <lane id=":cluster_13002_14001_0_1" index="1" speed="16.67" length="0" width="3.50" shape="-50.00,-98.25 -50.00,-98.25" customShape="1" />
  </edge>
  <edge id=":cluster_13002_14001_2" function="internal">
    <lane id=":cluster_13002_14001_2_0" index="0" speed="13.89" length="0" width="3.50" shape="-50.00,-105.25 -50.00,-105.25" customShape="1" />
    <lane id=":cluster_13002_14001_2_1" index="1" speed="13.89" length="0" width="3.50" shape="-50.00,-101.75 -50.00,-101.75" customShape="1" />
  </edge>
  <edge id=":cluster_14000_15001_0" function="internal">
    <lane id=":cluster_14000_15001_0_0" index="0" speed="16.67" length="0" width="3.50" shape="-150.00,-94.75 -150.00,-94.75" customShape="1" />
    <lane id=":cluster_14000_15001_0_1" index="1" speed="16.67" length="0" width="3.50" shape="-150.00,-98.25 -150.00,-98.25" customShape="1" />
  </edge>
  <edge id=":cluster_14000_15001_2" function="internal">
    <lane id=":cluster_14000_15001_2_0" index="0" speed="16.67" length="0" width="3.50" shape="-150.00,-105.25 -150.00,-105.25" customShape="1" />
    <lane id=":cluster_14000_15001_2_1" index="1" speed="16.67" length="0" width="3.50" shape="-150.00,-101.75 -150.00,-101.75" customShape="1" />
  </edge>
  <edge id=":cluster_15000_17000_0" function="internal">
    <lane id=":cluster_15000_17000_0_0" index="0" speed="16.67" length="0" width="3.50" shape="-250.00,-94.75 -250.00,-94.75" customShape="1" />
    <lane id=":cluster_15000_17000_0_1" index="1" speed="16.67" length="0" width="3.50" shape="-250.00,-98.25 -250.00,-98.25" customShape="1" />
  </edge>
  <edge id=":cluster_15000_17000_2" function="internal">
    <lane id=":cluster_15000_17000_2_0" index="0" speed="16.67" length="0" width="3.50" shape="-250.00,-105.25 -250.00,-105.25" customShape="1" />
    <lane id=":cluster_15000_17000_2_1" index="1" speed="16.67" length="0" width="3.50" shape="-250.00,-101.75 -250.00,-101.75" customShape="1" />
  </edge>
  <edge id=":cluster_16000_17001_0" function="internal">
    <lane id=":cluster_16000_17001_0_0" index="0" speed="16.67" length="0" width="3.50" shape="-349.85,-94.75 -349.85,-94.75" customShape="1" />
    <lane id=":cluster_16000_17001_0_1" index="1" speed="16.67" length="0" width="3.50" shape="-349.85,-98.25 -349.85,-98.25" customShape="1" />
  </edge>
  <edge id=":cluster_16000_17001_2" function="internal">
    <lane id=":cluster_16000_17001_2_0" index="0" speed="16.67" length="0" width="3.50" shape="-350.20,-105.25 -350.20,-105.25" customShape="1" />
    <lane id=":cluster_16000_17001_2_1" index="1" speed="16.67" length="0" width="3.50" shape="-350.17,-101.75 -350.17,-101.75" customShape="1" />
  </edge>
  <edge id=":cluster_18001_25000_0" function="internal">
    <lane id=":cluster_18001_25000_0_0" index="0" speed="11.11" length="0" width="3.50" shape="50.00,101.75 50.00,101.75" customShape="1" />
  </edge>
  <edge id=":cluster_18001_25000_1" function="internal">
    <lane id=":cluster_18001_25000_1_0" index="0" speed="11.11" length="0" width="3.50" shape="50.00,98.25 50.00,98.25" customShape="1" />
  </edge>
  <edge id=":cluster_18002_22000_0" function="internal">
    <lane id=":cluster_18002_22000_0_0" index="0" speed="13.89" length="0" width="3.50" shape="-5.25,150.20 -5.25,150.20" customShape="1" />
    <lane id=":cluster_18002_22000_0_1" index="1" speed="13.89" length="0" width="3.50" shape="-1.75,150.17 -1.75,150.17" customShape="1" />
  </edge>
  <edge id=":cluster_18002_22000_2" function="internal">
    <lane id=":cluster_18002_22000_2_0" index="0" speed="16.67" length="0" width="3.50" shape="5.25,149.85 5.25,149.85" customShape="1" />
    <lane id=":cluster_18002_22000_2_1" index="1" speed="16.67" length="0" width="3.50" shape="1.75,149.85 1.75,149.85" customShape="1" />
  </edge>
  <edge id=":cluster_19001_25001_0" function="internal">
    <lane id=":cluster_19001_25001_0_0" index="0" speed="11.11" length="0" width="3.50" shape="150.00,101.75 150.00,101.75" customShape="1" />
  </edge>
  <edge id=":cluster_19001_25001_1" function="internal">
    <lane id=":cluster_19001_25001_1_0" index="0" speed="11.11" length="0" width="3.50" shape="150.00,98.25 150.00,98.25" customShape="1" />
  </edge>
  <edge id=":cluster_19002_8003_0" function="internal">
    <lane id=":cluster_19002_8003_0_0" index="0" speed="13.89" length="0" width="3.50" shape="194.75,50.00 194.75,50.00" customShape="1" />
    <lane id=":cluster_19002_8003_0_1" index="1" speed="13.89" length="0" width="3.50" shape="198.25,50.00 198.25,50.00" customShape="1" />
  </edge>
  <edge id=":cluster_19002_8003_2" function="internal">
    <lane id=":cluster_19002_8003_2_0" index="0" speed="13.89" length="0" width="3.50" shape="205.25,50.00 205.25,50.00" customShape="1" />
    <lane id=":cluster_19002_8003_2_1" index="1" speed="13.89" length="0" width="3.50" shape="201.75,50.00 201.75,50.00" customShape="1" />
  </edge>
  <edge id=":cluster_19003_23001_0" function="internal">
    <lane id=":cluster_19003_23001_0_0" index="0" speed="13.89" length="0" width="3.50" shape="194.75,150.00 194.75,150.00" customShape="1" />
    <lane id=":cluster_19003_23001_0_1" index="1" speed="13.89" length="0" width="3.50" shape="198.25,150.00 198.25,150.00" customShape="1" />
  </edge>
  <edge id=":cluster_19003_23001_2" function="internal">
    <lane id=":cluster_19003_23001_2_0" index="0" speed="16.67" length="0" width="3.50" shape="205.25,150.00 205.25,150.00" customShape="1" />
    <lane id=":cluster_19003_23001_2_1" index="1" speed="16.67" length="0" width="3.50" shape="201.75,150.00 201.75,150.00" customShape="1" />
  </edge>
  <edge id=":cluster_20000_8002_0" function="internal">
    <lane id=":cluster_20000_8002_0_0" index="0" speed="16.67" length="0" width="3.50" shape="194.75,-49.85 194.75,-49.85" customShape="1" />
    <lane id=":cluster_20000_8002_0_1" index="1" speed="16.67" length="0" width="3.50" shape="198.25,-49.85 198.25,-49.85" customShape="1" />
  </edge>
  <edge id=":cluster_20000_8002_2" function="internal">